@<TRIPOS>MOLECULE
AD3CC00000505-I00-C00
 39 41 0 0 0
SMALL
GASTEIGER

@<TRIPOS>ATOM
      1 C           0.0460   -4.4880    0.9740 C.3     1  UNL1       -0.0224
      2 C           0.2690   -3.0140    1.1270 C.ar    1  UNL1        0.0382
      3 C           1.5010   -2.5350    1.5580 C.ar    1  UNL1       -0.0400
      4 C           1.6790   -1.1580    1.6920 C.ar    1  UNL1       -0.0494
      5 C           0.6350   -0.2740    1.3930 C.ar    1  UNL1        0.0190
      6 C           0.8050    1.1830    1.5190 C.ar    1  UNL1        0.0802
      7 N           1.3050    1.5680    2.7280 N.ar    1  UNL1       -0.2529
      8 C           1.4760    2.8920    2.9530 C.ar    1  UNL1        0.0466
      9 C           1.1810    3.8700    2.0240 C.ar    1  UNL1        0.0596
     10 CL          1.4250    5.5300    2.3800 Cl      1  UNL1       -0.0820
     11 C           0.6880    3.4760    0.7870 C.ar    1  UNL1       -0.0321
     12 C           0.4930    2.1110    0.5010 C.ar    1  UNL1        0.0095
     13 C           0.0120    1.7240   -0.8360 C.ar    1  UNL1       -0.0157
     14 C          -1.2740    2.0910   -1.2700 C.ar    1  UNL1       -0.0522
     15 C          -1.7470    1.7010   -2.5250 C.ar    1  UNL1       -0.0363
     16 C          -0.9300    0.9340   -3.3570 C.ar    1  UNL1        0.0879
     17 S          -1.5270    0.4240   -4.9510 S.O2    1  UNL1       -0.0059
     18 C          -2.2180   -1.1790   -4.6310 C.3     1  UNL1        0.0596
     19 O          -2.6090    1.3180   -5.3190 O.2     1  UNL1       -0.1696
     20 O          -0.3740    0.2580   -5.8150 O.2     1  UNL1       -0.1696
     21 C           0.3630    0.5860   -2.9640 C.ar    1  UNL1       -0.0363
     22 C           0.8270    0.9800   -1.7080 C.ar    1  UNL1       -0.0522
     23 C          -0.5640   -0.8610    0.9930 C.ar    1  UNL1        0.0370
     24 N          -0.7670   -2.1940    0.8400 N.ar    1  UNL1       -0.2595
     25 H          -0.9690   -4.6940    0.6170 H       1  UNL1        0.0292
     26 H           0.1770   -4.9930    1.9360 H       1  UNL1        0.0292
     27 H           0.7520   -4.9050    0.2490 H       1  UNL1        0.0292
     28 H           2.3130   -3.2160    1.7930 H       1  UNL1        0.0636
     29 H           2.6360   -0.7730    2.0360 H       1  UNL1        0.0625
     30 H           1.8680    3.1440    3.9340 H       1  UNL1        0.0844
     31 H           0.4690    4.2270    0.0310 H       1  UNL1        0.0639
     32 H          -1.9250    2.6790   -0.6240 H       1  UNL1        0.0624
     33 H          -2.7450    1.9980   -2.8410 H       1  UNL1        0.0637
     34 H          -1.4320   -1.8380   -4.2580 H       1  UNL1        0.0468
     35 H          -3.0220   -1.0810   -3.9000 H       1  UNL1        0.0468
     36 H          -2.6150   -1.5690   -5.5700 H       1  UNL1        0.0468
     37 H           1.0130    0.0140   -3.6230 H       1  UNL1        0.0637
     38 H           1.8360    0.6990   -1.4100 H       1  UNL1        0.0624
     39 H          -1.4420   -0.2570    0.7790 H       1  UNL1        0.0836
@<TRIPOS>BOND
     1     1     2    1
     2     1    25    1
     3     1    26    1
     4     1    27    1
     5     2     3   ar
     6     2    24   ar
     7     3     4   ar
     8     3    28    1
     9     4     5   ar
    10     4    29    1
    11     5     6    1
    12     5    23   ar
    13     6     7   ar
    14     6    12   ar
    15     7     8   ar
    16     8     9   ar
    17     8    30    1
    18     9    10    1
    19     9    11   ar
    20    11    12   ar
    21    11    31    1
    22    12    13    1
    23    13    14   ar
    24    13    22   ar
    25    14    15   ar
    26    14    32    1
    27    15    16   ar
    28    15    33    1
    29    16    17    1
    30    16    21   ar
    31    17    18    1
    32    17    19    2
    33    17    20    2
    34    18    34    1
    35    18    35    1
    36    18    36    1
    37    21    22   ar
    38    21    37    1
    39    22    38    1
    40    23    24   ar
    41    23    39    1
@<TRIPOS>MOLECULE
AD3CC00001237-I00-C00
 48 50 0 0 0
SMALL
GASTEIGER

@<TRIPOS>ATOM
      1 C           3.8080    4.7190   -4.5170 C.3     1  UNL1        0.0004
      2 N           2.7210    5.0510   -3.6380 N.am    1  UNL1       -0.3132
      3 C           1.7580    4.1350   -3.2720 C.2     1  UNL1        0.2623
      4 O           1.6750    3.0020   -3.7320 O.2     1  UNL1       -0.2685
      5 C           0.7960    4.6330   -2.2350 C.ar    1  UNL1        0.1288
      6 C          -0.2340    3.8140   -1.8020 C.ar    1  UNL1        0.0112
      7 C          -1.0940    4.3240   -0.8350 C.ar    1  UNL1        0.1321
      8 O          -2.1770    3.6250   -0.3520 O.3     1  UNL1       -0.4559
      9 C          -1.9720    2.3060   -0.0210 C.ar    1  UNL1        0.1286
     10 C          -0.9770    1.9100    0.8720 C.ar    1  UNL1       -0.0176
     11 C          -0.8320    0.5580    1.2000 C.ar    1  UNL1       -0.0370
     12 C          -1.6890   -0.4010    0.6540 C.ar    1  UNL1        0.0350
     13 N          -1.5940   -1.7830    0.9210 N.am    1  UNL1       -0.2692
     14 C          -0.8160   -2.4010    1.8890 C.2     1  UNL1        0.3081
     15 O          -0.1680   -1.8220    2.7500 O.2     1  UNL1       -0.2522
     16 N          -0.8770   -3.7800    1.7390 N.am    1  UNL1       -0.2692
     17 C          -0.3280   -4.7580    2.5930 C.ar    1  UNL1        0.0354
     18 C          -0.3140   -6.0770    2.1300 C.ar    1  UNL1       -0.0390
     19 C           0.2070   -7.1010    2.9240 C.ar    1  UNL1       -0.0411
     20 C           0.7150   -6.8190    4.1940 C.ar    1  UNL1        0.0527
     21 CL          1.3410   -8.1410    5.1110 Cl      1  UNL1       -0.0830
     22 C           0.7020   -5.5100    4.6850 C.ar    1  UNL1        0.0748
     23 C           1.2340   -5.1800    6.0540 C.3     1  UNL1        0.4188
     24 F           0.5780   -5.8390    7.0500 F       1  UNL1       -0.1658
     25 F           1.1310   -3.8580    6.3730 F       1  UNL1       -0.1658
     26 F           2.5540   -5.4830    6.1990 F       1  UNL1       -0.1658
     27 C           0.1730   -4.4860    3.8700 C.ar    1  UNL1       -0.0274
     28 C          -2.6940    0.0130   -0.2320 C.ar    1  UNL1       -0.0370
     29 C          -2.8440    1.3640   -0.5590 C.ar    1  UNL1       -0.0176
     30 C          -0.9240    5.6220   -0.3640 C.ar    1  UNL1       -0.0012
     31 C           0.1370    6.3620   -0.8550 C.ar    1  UNL1        0.0319
     32 N           1.0090    5.9020   -1.7760 N.ar    1  UNL1       -0.2501
     33 H           4.6010    4.2530   -3.9270 H       1  UNL1        0.0426
     34 H           4.1790    5.6400   -4.9730 H       1  UNL1        0.0426
     35 H           3.4750    4.0250   -5.2930 H       1  UNL1        0.0426
     36 H           2.7340    5.9170   -3.1040 H       1  UNL1        0.1487
     37 H          -0.3590    2.8190   -2.2150 H       1  UNL1        0.0677
     38 H          -0.3110    2.6400    1.3230 H       1  UNL1        0.0655
     39 H          -0.0330    0.2850    1.8840 H       1  UNL1        0.0637
     40 H          -2.2820   -2.3670    0.4710 H       1  UNL1        0.1564
     41 H          -1.1900   -4.1030    0.8350 H       1  UNL1        0.1564
     42 H          -0.7010   -6.3290    1.1460 H       1  UNL1        0.0636
     43 H           0.2150   -8.1200    2.5430 H       1  UNL1        0.0633
     44 H           0.1540   -3.4730    4.2660 H       1  UNL1        0.0642
     45 H          -3.3790   -0.7050   -0.6740 H       1  UNL1        0.0637
     46 H          -3.6320    1.6760   -1.2380 H       1  UNL1        0.0655
     47 H          -1.6000    6.0420    0.3730 H       1  UNL1        0.0669
     48 H           0.3150    7.3770   -0.5100 H       1  UNL1        0.0831
@<TRIPOS>BOND
     1     1     2    1
     2     1    33    1
     3     1    34    1
     4     1    35    1
     5     2     3   am
     6     2    36    1
     7     3     4    2
     8     3     5    1
     9     5     6   ar
    10     5    32   ar
    11     6     7   ar
    12     6    37    1
    13     7     8    1
    14     7    30   ar
    15     8     9    1
    16     9    10   ar
    17     9    29   ar
    18    10    11   ar
    19    10    38    1
    20    11    12   ar
    21    11    39    1
    22    12    13    1
    23    12    28   ar
    24    13    14   am
    25    13    40    1
    26    14    15    2
    27    14    16   am
    28    16    17    1
    29    16    41    1
    30    17    18   ar
    31    17    27   ar
    32    18    19   ar
    33    18    42    1
    34    19    20   ar
    35    19    43    1
    36    20    21    1
    37    20    22   ar
    38    22    23    1
    39    22    27   ar
    40    23    24    1
    41    23    25    1
    42    23    26    1
    43    27    44    1
    44    28    29   ar
    45    28    45    1
    46    29    46    1
    47    30    31   ar
    48    30    47    1
    49    31    32   ar
    50    31    48    1
@<TRIPOS>MOLECULE
AD3CC00008125-I00-C00
 58 62 0 0 0
SMALL
GASTEIGER

@<TRIPOS>ATOM
      1 N          -2.7770   -3.9000   -4.5070 N.3     1  UNL1       -0.3272
      2 C          -2.3880   -4.6770   -3.3280 C.3     1  UNL1        0.0050
      3 C          -0.8890   -4.9910   -3.3790 C.3     1  UNL1       -0.0361
      4 C          -0.0160   -3.7460   -3.1970 C.3     1  UNL1       -0.0331
      5 C          -0.3710   -2.9400   -1.9360 C.3     1  UNL1        0.0234
      6 N           0.0930   -3.6810   -0.7650 N.pl3   1  UNL1       -0.3106
      7 C           0.1470   -3.0010    0.4410 C.ar    1  UNL1        0.2174
      8 N          -0.1050   -3.7680    1.5220 N.ar    1  UNL1       -0.2207
      9 C          -0.0770   -3.2020    2.7560 C.ar    1  UNL1        0.0602
     10 C           0.1960   -1.8490    2.8790 C.ar    1  UNL1        0.1280
     11 N           0.3040   -1.0120    3.9590 N.ar    1  UNL1       -0.2110
     12 C           0.5450    0.1780    3.4490 C.ar    1  UNL1        0.2025
     13 N           0.7660    1.3050    4.1640 N.pl3   1  UNL1       -0.2804
     14 C          -0.2280    2.3150    4.3610 C.ar    1  UNL1        0.1047
     15 C          -1.3910    2.4690    3.5930 C.ar    1  UNL1        0.1473
     16 F          -1.7050    1.5950    2.6270 F       1  UNL1       -0.2034
     17 C          -2.2760    3.5300    3.8070 C.ar    1  UNL1       -0.0244
     18 C          -2.0100    4.4790    4.7920 C.ar    1  UNL1       -0.0562
     19 C          -0.8540    4.3650    5.5570 C.ar    1  UNL1       -0.0244
     20 C           0.0200    3.3010    5.3320 C.ar    1  UNL1        0.1473
     21 F           1.1290    3.2160    6.0840 F       1  UNL1       -0.2034
     22 N           0.6780    0.1260    2.0730 N.ar    1  UNL1       -0.2933
     23 C           1.0930    1.2000    1.1910 C.3     1  UNL1        0.0390
     24 C           0.0600    1.5680    0.1120 C.3     1  UNL1       -0.0320
     25 C           0.8920    1.9430   -1.1050 C.3     1  UNL1       -0.0511
     26 C           2.0610    0.9770   -1.0430 C.3     1  UNL1       -0.0511
     27 C           2.4090    0.9170    0.4400 C.3     1  UNL1       -0.0320
     28 C           0.4280   -1.1710    1.6980 C.ar    1  UNL1        0.1670
     29 N           0.4250   -1.6870    0.4600 N.ar    1  UNL1       -0.1948
     30 C          -1.8790   -2.6500   -1.8650 C.3     1  UNL1       -0.0331
     31 C          -2.7380   -3.9040   -2.0520 C.3     1  UNL1       -0.0361
     32 H          -3.7840   -3.7400   -4.4940 H       1  UNL1        0.1185
     33 H          -2.5860   -4.4400   -5.3510 H       1  UNL1        0.1185
     34 H          -2.9500   -5.6180   -3.3410 H       1  UNL1        0.0458
     35 H          -0.6510   -5.7190   -2.5930 H       1  UNL1        0.0281
     36 H          -0.6330   -5.4780   -4.3280 H       1  UNL1        0.0281
     37 H          -0.1280   -3.0980   -4.0750 H       1  UNL1        0.0284
     38 H           1.0380   -4.0480   -3.1680 H       1  UNL1        0.0284
     39 H           0.1710   -1.9880   -2.0070 H       1  UNL1        0.0498
     40 H          -0.3690   -4.5620   -0.5730 H       1  UNL1        0.1492
     41 H          -0.2720   -3.8460    3.6030 H       1  UNL1        0.0853
     42 H           1.1380    1.0960    5.0940 H       1  UNL1        0.1551
     43 H          -3.1720    3.6030    3.1960 H       1  UNL1        0.0647
     44 H          -2.6990    5.3040    4.9580 H       1  UNL1        0.0619
     45 H          -0.6220    5.0950    6.3270 H       1  UNL1        0.0647
     46 H           1.2640    2.0870    1.8120 H       1  UNL1        0.0529
     47 H          -0.5790    2.3990    0.4280 H       1  UNL1        0.0285
     48 H          -0.6020    0.7300   -0.1330 H       1  UNL1        0.0285
     49 H           1.2470    2.9760   -1.0160 H       1  UNL1        0.0266
     50 H           0.3270    1.8540   -2.0370 H       1  UNL1        0.0266
     51 H           1.7550   -0.0120   -1.4010 H       1  UNL1        0.0266
     52 H           2.9070    1.3090   -1.6520 H       1  UNL1        0.0266
     53 H           2.8830   -0.0340    0.7040 H       1  UNL1        0.0285
     54 H           3.1320    1.7090    0.6730 H       1  UNL1        0.0285
     55 H          -2.1330   -1.9230   -2.6470 H       1  UNL1        0.0284
     56 H          -2.1430   -2.1750   -0.9130 H       1  UNL1        0.0284
     57 H          -2.6080   -4.5650   -1.1860 H       1  UNL1        0.0281
     58 H          -3.7980   -3.6190   -2.0580 H       1  UNL1        0.0281
@<TRIPOS>BOND
     1     1     2    1
     2     1    32    1
     3     1    33    1
     4     2     3    1
     5     2    31    1
     6     2    34    1
     7     3     4    1
     8     3    35    1
     9     3    36    1
    10     4     5    1
    11     4    37    1
    12     4    38    1
    13     5     6    1
    14     5    30    1
    15     5    39    1
    16     6     7    1
    17     6    40    1
    18     7     8   ar
    19     7    29   ar
    20     8     9   ar
    21     9    10   ar
    22     9    41    1
    23    10    11   ar
    24    10    28   ar
    25    11    12   ar
    26    12    13    1
    27    12    22   ar
    28    13    14    1
    29    13    42    1
    30    14    15   ar
    31    14    20   ar
    32    15    16    1
    33    15    17   ar
    34    17    18   ar
    35    17    43    1
    36    18    19   ar
    37    18    44    1
    38    19    20   ar
    39    19    45    1
    40    20    21    1
    41    22    23    1
    42    22    28   ar
    43    23    24    1
    44    23    27    1
    45    23    46    1
    46    24    25    1
    47    24    47    1
    48    24    48    1
    49    25    26    1
    50    25    49    1
    51    25    50    1
    52    26    27    1
    53    26    51    1
    54    26    52    1
    55    27    53    1
    56    27    54    1
    57    28    29   ar
    58    30    31    1
    59    30    55    1
    60    30    56    1
    61    31    57    1
    62    31    58    1
@<TRIPOS>MOLECULE
AD3CC00008128-I00-C00
 48 51 0 0 0
SMALL
GASTEIGER

@<TRIPOS>ATOM
      1 C          -4.1120    3.0550    0.3440 C.3     1  UNL1        0.0819
      2 O          -2.9580    2.4700   -0.2430 O.3     1  UNL1       -0.4657
      3 C          -2.4130    1.4650    0.5270 C.ar    1  UNL1        0.3182
      4 N          -3.0400    1.0580    1.6420 N.ar    1  UNL1       -0.2033
      5 C          -2.4500    0.0580    2.3190 C.ar    1  UNL1        0.0350
      6 C          -1.2800   -0.5390    1.9200 C.ar    1  UNL1       -0.0158
      7 C          -0.7230   -0.0430    0.7610 C.ar    1  UNL1        0.0962
      8 C           0.5260   -0.5650    0.2190 C.ar    1  UNL1        0.0953
      9 C           1.7590   -0.8020    0.8180 C.ar    1  UNL1        0.0982
     10 C           2.1350   -0.5230    2.1940 C.ar    1  UNL1        0.0027
     11 C           1.8290    0.7040    2.8030 C.ar    1  UNL1       -0.0498
     12 C           2.2030    0.9450    4.1270 C.ar    1  UNL1       -0.0258
     13 C           2.8910   -0.0340    4.8350 C.ar    1  UNL1        0.1234
     14 F           3.2470    0.1990    6.1050 F       1  UNL1       -0.2055
     15 C           3.2200   -1.2470    4.2430 C.ar    1  UNL1       -0.0258
     16 C           2.8470   -1.4900    2.9190 C.ar    1  UNL1       -0.0498
     17 N           2.6430   -1.3710   -0.0650 N.ar    1  UNL1       -0.2351
     18 C           2.0040   -1.4210   -1.2070 C.ar    1  UNL1        0.0974
     19 N           0.7180   -0.9660   -1.0940 N.ar    1  UNL1       -0.3253
     20 C          -0.2550   -0.9280   -2.1840 C.3     1  UNL1        0.0362
     21 C           0.0150    0.2520   -3.1300 C.3     1  UNL1       -0.0297
     22 C          -1.0270    0.3240   -4.2420 C.3     1  UNL1       -0.0250
     23 C          -1.1310   -0.9960   -5.0060 C.3     1  UNL1        0.0554
     24 O          -2.1760   -0.9140   -5.9670 O.3     1  UNL1       -0.3918
     25 C          -1.3930   -2.1740   -4.0690 C.3     1  UNL1       -0.0250
     26 C          -0.3430   -2.2540   -2.9630 C.3     1  UNL1       -0.0297
     27 N          -1.2740    0.9540    0.0450 N.ar    1  UNL1       -0.1934
     28 H          -3.8830    3.5000    1.3190 H       1  UNL1        0.0661
     29 H          -4.9290    2.3290    0.4250 H       1  UNL1        0.0661
     30 H          -4.4500    3.8600   -0.3150 H       1  UNL1        0.0661
     31 H          -2.9630   -0.2620    3.2220 H       1  UNL1        0.0832
     32 H          -0.8300   -1.3440    2.4860 H       1  UNL1        0.0655
     33 H           1.3170    1.4860    2.2480 H       1  UNL1        0.0625
     34 H           1.9710    1.8910    4.6050 H       1  UNL1        0.0646
     35 H           3.7700   -1.9920    4.8080 H       1  UNL1        0.0646
     36 H           3.1170   -2.4330    2.4480 H       1  UNL1        0.0625
     37 H           2.4250   -1.7800   -2.1380 H       1  UNL1        0.1029
     38 H          -1.2410   -0.7860   -1.7270 H       1  UNL1        0.0528
     39 H           1.0140    0.1570   -3.5770 H       1  UNL1        0.0286
     40 H           0.0150    1.1960   -2.5720 H       1  UNL1        0.0286
     41 H          -2.0050    0.5850   -3.8170 H       1  UNL1        0.0291
     42 H          -0.7810    1.1350   -4.9380 H       1  UNL1        0.0291
     43 H          -0.1990   -1.1710   -5.5560 H       1  UNL1        0.0593
     44 H          -3.0050   -0.7070   -5.5010 H       1  UNL1        0.2098
     45 H          -2.3940   -2.0830   -3.6270 H       1  UNL1        0.0291
     46 H          -1.4060   -3.1080   -4.6430 H       1  UNL1        0.0291
     47 H          -0.5920   -3.0750   -2.2790 H       1  UNL1        0.0286
     48 H           0.6240   -2.5040   -3.4150 H       1  UNL1        0.0286
@<TRIPOS>BOND
     1     1     2    1
     2     1    28    1
     3     1    29    1
     4     1    30    1
     5     2     3    1
     6     3     4   ar
     7     3    27   ar
     8     4     5   ar
     9     5     6   ar
    10     5    31    1
    11     6     7   ar
    12     6    32    1
    13     7     8    1
    14     7    27   ar
    15     8     9   ar
    16     8    19   ar
    17     9    10    1
    18     9    17   ar
    19    10    11   ar
    20    10    16   ar
    21    11    12   ar
    22    11    33    1
    23    12    13   ar
    24    12    34    1
    25    13    14    1
    26    13    15   ar
    27    15    16   ar
    28    15    35    1
    29    16    36    1
    30    17    18   ar
    31    18    19   ar
    32    18    37    1
    33    19    20    1
    34    20    21    1
    35    20    26    1
    36    20    38    1
    37    21    22    1
    38    21    39    1
    39    21    40    1
    40    22    23    1
    41    22    41    1
    42    22    42    1
    43    23    24    1
    44    23    25    1
    45    23    43    1
    46    24    44    1
    47    25    26    1
    48    25    45    1
    49    25    46    1
    50    26    47    1
    51    26    48    1
@<TRIPOS>MOLECULE
AD3CC00013892-I00-C00
 70 75 0 0 0
SMALL
GASTEIGER

@<TRIPOS>ATOM
      1 C           1.6050   -4.9020    0.1340 C.3     1  UNL1        0.0124
      2 C           2.2460   -4.4430   -1.1520 C.2     1  UNL1        0.2125
      3 O           3.3420   -4.8920   -1.4930 O.2     1  UNL1       -0.2759
      4 N           1.5390   -3.5230   -1.9170 N.am    1  UNL1       -0.2993
      5 C           2.2390   -2.9350   -3.0570 C.3     1  UNL1        0.0275
      6 C           1.2880   -2.2990   -4.0840 C.3     1  UNL1        0.0150
      7 N           0.3480   -1.3330   -3.4600 N.3     1  UNL1       -0.2963
      8 C          -0.5360   -0.7640   -4.5010 C.3     1  UNL1        0.0143
      9 C          -1.3820    0.4110   -3.9450 C.3     1  UNL1       -0.0163
     10 C          -0.2360    1.3960   -4.3010 C.3     1  UNL1        0.0387
     11 N           0.7190    1.6760   -3.1920 N.ar    1  UNL1       -0.3280
     12 C           0.3780    1.7760   -1.8690 C.ar    1  UNL1        0.0153
     13 C           1.5320    2.0300   -1.1480 C.ar    1  UNL1        0.0151
     14 C           1.5190    2.1540    0.3000 C.ar    1  UNL1        0.0231
     15 C           2.0680    3.2860    0.9180 C.ar    1  UNL1       -0.0510
     16 C           2.0620    3.4090    2.3110 C.ar    1  UNL1       -0.0576
     17 C           1.4970    2.4080    3.1030 C.ar    1  UNL1       -0.0170
     18 C           0.9260    1.2900    2.4970 C.ar    1  UNL1        0.1562
     19 O           0.3860    0.2610    3.2180 O.3     1  UNL1       -0.4865
     20 C          -0.6350    0.6880    4.1270 C.3     1  UNL1        0.1158
     21 C          -1.6420   -0.4480    4.2940 C.3     1  UNL1        0.0927
     22 C          -2.3410   -0.8350    2.9980 C.3     1  UNL1       -0.0213
     23 C          -3.6040   -1.4740    3.5200 C.3     1  UNL1       -0.0270
     24 C          -3.9260   -0.6120    4.7240 C.3     1  UNL1        0.0482
     25 O          -2.6850   -0.0800    5.2130 O.3     1  UNL1       -0.3732
     26 C           0.9520    1.1600    1.1070 C.ar    1  UNL1        0.1725
     27 F           0.4060    0.0640    0.5500 F       1  UNL1       -0.2010
     28 C           2.5930    2.1990   -2.0970 C.ar    1  UNL1        0.0661
     29 C           3.9690    2.4850   -2.0610 C.ar    1  UNL1        0.1292
     30 N           4.7100    2.6260   -0.8930 N.pl3   1  UNL1       -0.3425
     31 N           4.6440    2.6140   -3.2180 N.ar    1  UNL1       -0.2204
     32 C           3.9700    2.4610   -4.3730 C.ar    1  UNL1        0.1204
     33 N           2.6730    2.1670   -4.5390 N.ar    1  UNL1       -0.2176
     34 C           2.0350    2.0290   -3.3630 C.ar    1  UNL1        0.1466
     35 C           0.2460    0.3130   -5.3050 C.3     1  UNL1       -0.0163
     36 C          -0.4360   -2.0720   -2.4440 C.3     1  UNL1        0.0150
     37 C           0.4670   -2.6930   -1.3610 C.3     1  UNL1        0.0275
     38 H           0.6300   -5.3520   -0.0710 H       1  UNL1        0.0323
     39 H           1.5040   -4.0630    0.8290 H       1  UNL1        0.0323
     40 H           2.2390   -5.6590    0.6040 H       1  UNL1        0.0323
     41 H           2.9300   -2.1810   -2.6650 H       1  UNL1        0.0477
     42 H           2.8390   -3.7030   -3.5540 H       1  UNL1        0.0477
     43 H           0.7270   -3.0940   -4.5940 H       1  UNL1        0.0442
     44 H           1.9060   -1.8090   -4.8430 H       1  UNL1        0.0442
     45 H          -1.0900   -1.4950   -5.0990 H       1  UNL1        0.0464
     46 H          -2.2790    0.5940   -4.5550 H       1  UNL1        0.0300
     47 H          -1.7360    0.3660   -2.9140 H       1  UNL1        0.0300
     48 H          -0.5720    2.3290   -4.7670 H       1  UNL1        0.0529
     49 H          -0.6390    1.6290   -1.5340 H       1  UNL1        0.0816
     50 H           2.5080    4.0830    0.3190 H       1  UNL1        0.0625
     51 H           2.5060    4.2860    2.7760 H       1  UNL1        0.0619
     52 H           1.5190    2.5030    4.1850 H       1  UNL1        0.0655
     53 H          -1.1570    1.5880    3.7730 H       1  UNL1        0.0723
     54 H          -0.1820    0.9260    5.0970 H       1  UNL1        0.0723
     55 H          -1.1350   -1.3300    4.7070 H       1  UNL1        0.0630
     56 H          -2.5950    0.0550    2.4090 H       1  UNL1        0.0292
     57 H          -1.7440   -1.5050    2.3730 H       1  UNL1        0.0292
     58 H          -4.4150   -1.5090    2.7890 H       1  UNL1        0.0288
     59 H          -3.3950   -2.5020    3.8430 H       1  UNL1        0.0288
     60 H          -4.4230   -1.1760    5.5200 H       1  UNL1        0.0560
     61 H          -4.5620    0.2360    4.4490 H       1  UNL1        0.0560
     62 H           5.6980    2.5400   -1.1050 H       1  UNL1        0.1437
     63 H           4.3790    2.0510   -0.1300 H       1  UNL1        0.1437
     64 H           4.5510    2.5860   -5.2810 H       1  UNL1        0.1048
     65 H          -0.1720    0.4670   -6.3100 H       1  UNL1        0.0300
     66 H           1.3210    0.1760   -5.4380 H       1  UNL1        0.0300
     67 H          -1.0280   -2.8640   -2.9210 H       1  UNL1        0.0442
     68 H          -1.1390   -1.4080   -1.9320 H       1  UNL1        0.0442
     69 H          -0.1550   -3.2820   -0.6800 H       1  UNL1        0.0477
     70 H           0.9500   -1.9070   -0.7700 H       1  UNL1        0.0477
@<TRIPOS>BOND
     1     1     2    1
     2     1    38    1
     3     1    39    1
     4     1    40    1
     5     2     3    2
     6     2     4   am
     7     4     5    1
     8     4    37    1
     9     5     6    1
    10     5    41    1
    11     5    42    1
    12     6     7    1
    13     6    43    1
    14     6    44    1
    15     7     8    1
    16     7    36    1
    17     8     9    1
    18     8    35    1
    19     8    45    1
    20     9    10    1
    21     9    46    1
    22     9    47    1
    23    10    11    1
    24    10    35    1
    25    10    48    1
    26    11    12   ar
    27    11    34   ar
    28    12    13   ar
    29    12    49    1
    30    13    14    1
    31    13    28   ar
    32    14    15   ar
    33    14    26   ar
    34    15    16   ar
    35    15    50    1
    36    16    17   ar
    37    16    51    1
    38    17    18   ar
    39    17    52    1
    40    18    19    1
    41    18    26   ar
    42    19    20    1
    43    20    21    1
    44    20    53    1
    45    20    54    1
    46    21    22    1
    47    21    25    1
    48    21    55    1
    49    22    23    1
    50    22    56    1
    51    22    57    1
    52    23    24    1
    53    23    58    1
    54    23    59    1
    55    24    25    1
    56    24    60    1
    57    24    61    1
    58    26    27    1
    59    28    29   ar
    60    28    34   ar
    61    29    30    1
    62    29    31   ar
    63    30    62    1
    64    30    63    1
    65    31    32   ar
    66    32    33   ar
    67    32    64    1
    68    33    34   ar
    69    35    65    1
    70    35    66    1
    71    36    37    1
    72    36    67    1
    73    36    68    1
    74    37    69    1
    75    37    70    1
@<TRIPOS>MOLECULE
AD3CC00013896-I00-C00
 67 73 0 0 0
SMALL
GASTEIGER

@<TRIPOS>ATOM
      1 N          -3.2750    3.0660   -2.4780 N.pl3   1  UNL1       -0.3425
      2 C          -3.7290    2.5600   -1.2670 C.ar    1  UNL1        0.1292
      3 N          -5.0580    2.6140   -1.0510 N.ar    1  UNL1       -0.2204
      4 C          -5.5390    2.1220    0.1050 C.ar    1  UNL1        0.1204
      5 N          -4.8570    1.5430    1.1050 N.ar    1  UNL1       -0.2176
      6 C          -3.5380    1.4990    0.8480 C.ar    1  UNL1        0.1466
      7 C          -2.9000    1.9900   -0.2870 C.ar    1  UNL1        0.0660
      8 C          -1.4970    1.7550   -0.1090 C.ar    1  UNL1        0.0123
      9 C          -0.3690    2.1070   -0.9520 C.ar    1  UNL1       -0.0123
     10 C          -0.1770    3.4310   -1.3570 C.ar    1  UNL1       -0.0537
     11 C           0.9060    3.7650   -2.1700 C.ar    1  UNL1       -0.0577
     12 C           1.8070    2.7800   -2.5830 C.ar    1  UNL1       -0.0199
     13 C           1.6280    1.4550   -2.1820 C.ar    1  UNL1        0.1212
     14 O           2.4300    0.3990   -2.5140 O.3     1  UNL1       -0.4891
     15 C           3.5650    0.6750   -3.3360 C.3     1  UNL1        0.1185
     16 C           4.3290   -0.6170   -3.5840 C.3     1  UNL1        0.1038
     17 C           3.5550   -1.6800   -4.3780 C.3     1  UNL1       -0.0182
     18 C           4.6880   -2.5210   -4.9680 C.3     1  UNL1       -0.0239
     19 C           5.9290   -1.8230   -4.4140 C.3     1  UNL1        0.0597
     20 C           6.0730   -2.0950   -2.9190 C.3     1  UNL1       -0.0239
     21 C           4.9410   -1.2540   -2.3270 C.3     1  UNL1       -0.0182
     22 O           5.5040   -0.4390   -4.4150 O.3     1  UNL1       -0.3668
     23 C           0.5400    1.1260   -1.3680 C.ar    1  UNL1       -0.0122
     24 C          -1.3340    1.1350    1.1170 C.ar    1  UNL1        0.0152
     25 N          -2.5770    0.9530    1.6600 N.ar    1  UNL1       -0.3281
     26 C          -2.8360    0.3820    2.9970 C.3     1  UNL1        0.0365
     27 C          -3.9550   -0.6940    3.0210 C.3     1  UNL1       -0.0280
     28 C          -3.0950   -1.4570    4.0640 C.3     1  UNL1       -0.0245
     29 C          -3.1890   -2.9790    3.9990 C.3     1  UNL1        0.0018
     30 N          -2.3000   -3.5900    4.9930 N.3     1  UNL1       -0.3020
     31 C          -2.4160   -5.0730    4.9430 C.3     1  UNL1        0.0001
     32 C          -0.8860   -5.1280    5.1140 C.3     1  UNL1       -0.0274
     33 C          -0.9110   -3.7270    4.4750 C.3     1  UNL1        0.0001
     34 C          -1.8700   -0.7610    3.4100 C.3     1  UNL1       -0.0280
     35 H          -2.4290    2.6320   -2.8240 H       1  UNL1        0.1437
     36 H          -4.0390    3.1470   -3.1380 H       1  UNL1        0.1437
     37 H          -6.6130    2.1990    0.2430 H       1  UNL1        0.1048
     38 H          -0.8660    4.2120   -1.0400 H       1  UNL1        0.0624
     39 H           1.0500    4.7970   -2.4810 H       1  UNL1        0.0619
     40 H           2.6370    3.0810   -3.2140 H       1  UNL1        0.0654
     41 H           4.2280    1.3990   -2.8450 H       1  UNL1        0.0726
     42 H           3.2490    1.0990   -4.2980 H       1  UNL1        0.0726
     43 H           2.8720   -2.2660   -3.7550 H       1  UNL1        0.0295
     44 H           2.9750   -1.2290   -5.1910 H       1  UNL1        0.0295
     45 H           4.6630   -2.4490   -6.0620 H       1  UNL1        0.0291
     46 H           4.6290   -3.5770   -4.6900 H       1  UNL1        0.0291
     47 H           6.8390   -1.9810   -4.9970 H       1  UNL1        0.0596
     48 H           5.9970   -3.1570   -2.6660 H       1  UNL1        0.0291
     49 H           7.0350   -1.7200   -2.5520 H       1  UNL1        0.0291
     50 H           4.2230   -1.8510   -1.7570 H       1  UNL1        0.0295
     51 H           5.3630   -0.4950   -1.6580 H       1  UNL1        0.0295
     52 H           0.4030    0.0900   -1.0640 H       1  UNL1        0.0660
     53 H          -0.4380    0.8250    1.6400 H       1  UNL1        0.0816
     54 H          -2.9520    1.1580    3.7640 H       1  UNL1        0.0528
     55 H          -4.9290   -0.3540    3.3840 H       1  UNL1        0.0288
     56 H          -4.1000   -1.2370    2.0780 H       1  UNL1        0.0288
     57 H          -3.2860   -1.0890    5.0840 H       1  UNL1        0.0314
     58 H          -4.2210   -3.2640    4.2410 H       1  UNL1        0.0429
     59 H          -2.9970   -3.3390    2.9800 H       1  UNL1        0.0429
     60 H          -2.7660   -5.4950    3.9920 H       1  UNL1        0.0427
     61 H          -2.9930   -5.5140    5.7610 H       1  UNL1        0.0427
     62 H          -0.3640   -5.9070    4.5550 H       1  UNL1        0.0290
     63 H          -0.5510   -5.1400    6.1580 H       1  UNL1        0.0290
     64 H          -0.8010   -3.7450    3.3830 H       1  UNL1        0.0427
     65 H          -0.1940   -3.0150    4.8920 H       1  UNL1        0.0427
     66 H          -1.4320   -1.3290    2.5800 H       1  UNL1        0.0288
     67 H          -1.0720   -0.4740    4.1020 H       1  UNL1        0.0288
@<TRIPOS>BOND
     1     1     2    1
     2     1    35    1
     3     1    36    1
     4     2     3   ar
     5     2     7   ar
     6     3     4   ar
     7     4     5   ar
     8     4    37    1
     9     5     6   ar
    10     6     7   ar
    11     6    25   ar
    12     7     8   ar
    13     8     9    1
    14     8    24   ar
    15     9    10   ar
    16     9    23   ar
    17    10    11   ar
    18    10    38    1
    19    11    12   ar
    20    11    39    1
    21    12    13   ar
    22    12    40    1
    23    13    14    1
    24    13    23   ar
    25    14    15    1
    26    16    15    1
    27    15    41    1
    28    15    42    1
    29    16    17    1
    30    16    21    1
    31    16    22    1
    32    17    18    1
    33    17    43    1
    34    17    44    1
    35    18    19    1
    36    18    45    1
    37    18    46    1
    38    19    20    1
    39    19    22    1
    40    19    47    1
    41    20    21    1
    42    20    48    1
    43    20    49    1
    44    21    50    1
    45    21    51    1
    46    23    52    1
    47    24    25   ar
    48    24    53    1
    49    25    26    1
    50    26    27    1
    51    26    34    1
    52    26    54    1
    53    27    28    1
    54    27    55    1
    55    27    56    1
    56    28    29    1
    57    28    34    1
    58    28    57    1
    59    29    30    1
    60    29    58    1
    61    29    59    1
    62    30    31    1
    63    30    33    1
    64    31    32    1
    65    31    60    1
    66    31    61    1
    67    32    33    1
    68    32    62    1
    69    32    63    1
    70    33    64    1
    71    33    65    1
    72    34    66    1
    73    34    67    1
@<TRIPOS>MOLECULE
AD3CC00013899-I00-C00
 63 68 0 0 0
SMALL
GASTEIGER

@<TRIPOS>ATOM
      1 N           1.1130   -3.1510   -3.8230 N.pl3   1  UNL1       -0.3425
      2 C           1.1870   -1.7660   -3.8310 C.ar    1  UNL1        0.1292
      3 N           1.0020   -1.1570   -5.0180 N.ar    1  UNL1       -0.2204
      4 C           1.0590    0.1870   -5.0660 C.ar    1  UNL1        0.1204
      5 N           1.2670    1.0410   -4.0540 N.ar    1  UNL1       -0.2176
      6 C           1.4340    0.3980   -2.8850 C.ar    1  UNL1        0.1466
      7 C           1.4230   -0.9800   -2.6900 C.ar    1  UNL1        0.0660
      8 C           1.6730   -1.2040   -1.2980 C.ar    1  UNL1        0.0123
      9 C           1.8110   -2.4430   -0.5540 C.ar    1  UNL1       -0.0123
     10 C           2.7660   -3.3890   -0.9400 C.ar    1  UNL1       -0.0537
     11 C           2.8960   -4.5800   -0.2290 C.ar    1  UNL1       -0.0577
     12 C           2.0710   -4.8270    0.8690 C.ar    1  UNL1       -0.0199
     13 C           1.1130   -3.8910    1.2660 C.ar    1  UNL1        0.1212
     14 O           0.3710   -4.2630    2.3530 O.3     1  UNL1       -0.4894
     15 C          -0.6330   -3.3490    2.8060 C.3     1  UNL1        0.1156
     16 C          -1.3330   -3.9540    4.0250 C.3     1  UNL1        0.0927
     17 C          -2.6060   -3.2170    4.4060 C.3     1  UNL1       -0.0213
     18 C          -2.7380   -3.5750    5.8650 C.3     1  UNL1       -0.0270
     19 C          -1.2970   -3.5490    6.3270 C.3     1  UNL1        0.0482
     20 O          -0.4850   -3.8810    5.1910 O.3     1  UNL1       -0.3732
     21 C           0.9860   -2.6980    0.5530 C.ar    1  UNL1       -0.0122
     22 C           1.8320    0.0350   -0.7000 C.ar    1  UNL1        0.0152
     23 N           1.6430    0.9880   -1.6640 N.ar    1  UNL1       -0.3281
     24 C           1.7890    2.4430   -1.4600 C.3     1  UNL1        0.0365
     25 C           0.5830    3.2720   -1.9800 C.3     1  UNL1       -0.0280
     26 C           0.7810    4.1910   -0.7440 C.3     1  UNL1       -0.0245
     27 C          -0.4690    4.7690   -0.0870 C.3     1  UNL1        0.0018
     28 N          -1.1060    5.7470   -0.9740 N.3     1  UNL1       -0.3020
     29 C          -0.4080    7.0610   -0.9230 C.3     1  UNL1        0.0001
     30 C          -1.8000    7.7200   -0.9060 C.3     1  UNL1       -0.0274
     31 C          -2.2660    6.3850   -0.2950 C.3     1  UNL1        0.0001
     32 C           1.3980    2.9500   -0.0450 C.3     1  UNL1       -0.0280
     33 H           0.8120   -3.5580   -2.9470 H       1  UNL1        0.1437
     34 H           0.6530   -3.4910   -4.6600 H       1  UNL1        0.1437
     35 H           0.9160    0.6330   -6.0450 H       1  UNL1        0.1048
     36 H           3.4170   -3.2040   -1.7930 H       1  UNL1        0.0624
     37 H           3.6400   -5.3150   -0.5260 H       1  UNL1        0.0619
     38 H           2.1770   -5.7560    1.4240 H       1  UNL1        0.0654
     39 H          -0.1620   -2.3990    3.0880 H       1  UNL1        0.0723
     40 H          -1.3670   -3.1940    2.0070 H       1  UNL1        0.0723
     41 H          -1.5390   -5.0180    3.8540 H       1  UNL1        0.0630
     42 H          -2.4780   -2.1330    4.3030 H       1  UNL1        0.0292
     43 H          -3.4680   -3.5210    3.8060 H       1  UNL1        0.0292
     44 H          -3.1450   -4.5880    5.9640 H       1  UNL1        0.0288
     45 H          -3.3790   -2.8930    6.4300 H       1  UNL1        0.0288
     46 H          -1.1040   -4.2570    7.1380 H       1  UNL1        0.0560
     47 H          -1.0060   -2.5480    6.6610 H       1  UNL1        0.0560
     48 H           0.2490   -1.9520    0.8330 H       1  UNL1        0.0660
     49 H           2.0710    0.3010    0.3210 H       1  UNL1        0.0816
     50 H           2.7620    2.8150   -1.8050 H       1  UNL1        0.0528
     51 H          -0.3760    2.7400   -1.9940 H       1  UNL1        0.0288
     52 H           0.7290    3.7610   -2.9480 H       1  UNL1        0.0288
     53 H           1.5410    4.9670   -0.9210 H       1  UNL1        0.0314
     54 H          -1.1850    3.9600    0.1080 H       1  UNL1        0.0429
     55 H          -0.2060    5.1970    0.8890 H       1  UNL1        0.0429
     56 H           0.2030    7.2880   -1.8020 H       1  UNL1        0.0427
     57 H           0.1820    7.2590   -0.0190 H       1  UNL1        0.0427
     58 H          -2.2120    7.9260   -1.9010 H       1  UNL1        0.0290
     59 H          -1.9090    8.6050   -0.2750 H       1  UNL1        0.0290
     60 H          -2.2460    6.3740    0.8020 H       1  UNL1        0.0427
     61 H          -3.2440    6.0330   -0.6350 H       1  UNL1        0.0427
     62 H           0.6630    2.3380    0.4920 H       1  UNL1        0.0288
     63 H           2.2360    3.1620    0.6260 H       1  UNL1        0.0288
@<TRIPOS>BOND
     1     1     2    1
     2     1    33    1
     3     1    34    1
     4     2     3   ar
     5     2     7   ar
     6     3     4   ar
     7     4     5   ar
     8     4    35    1
     9     5     6   ar
    10     6     7   ar
    11     6    23   ar
    12     7     8   ar
    13     8     9    1
    14     8    22   ar
    15     9    10   ar
    16     9    21   ar
    17    10    11   ar
    18    10    36    1
    19    11    12   ar
    20    11    37    1
    21    12    13   ar
    22    12    38    1
    23    13    14    1
    24    13    21   ar
    25    14    15    1
    26    15    16    1
    27    15    39    1
    28    15    40    1
    29    16    17    1
    30    16    20    1
    31    16    41    1
    32    17    18    1
    33    17    42    1
    34    17    43    1
    35    18    19    1
    36    18    44    1
    37    18    45    1
    38    19    20    1
    39    19    46    1
    40    19    47    1
    41    21    48    1
    42    22    23   ar
    43    22    49    1
    44    23    24    1
    45    24    25    1
    46    24    32    1
    47    24    50    1
    48    25    26    1
    49    25    51    1
    50    25    52    1
    51    26    27    1
    52    26    32    1
    53    26    53    1
    54    27    28    1
    55    27    54    1
    56    27    55    1
    57    28    29    1
    58    28    31    1
    59    29    30    1
    60    29    56    1
    61    29    57    1
    62    30    31    1
    63    30    58    1
    64    30    59    1
    65    31    60    1
    66    31    61    1
    67    32    62    1
    68    32    63    1
@<TRIPOS>MOLECULE
AD3CC00020395-I00-C01
 48 51 0 0 0
SMALL
GASTEIGER

@<TRIPOS>ATOM
      1 O           3.0660    0.4330    5.6520 O.2     1  UNL1       -0.2468
      2 C           2.9900    0.4150    4.4390 C.ar    1  UNL1        0.3250
      3 N           3.7440    1.1540    3.5250 N.ar    1  UNL1       -0.3056
      4 C           3.3460    0.8470    2.2430 C.ar    1  UNL1        0.0746
      5 C           3.9620    1.4940    1.0850 C.ar    1  UNL1        0.0006
      6 C           5.3600    1.5590    0.9740 C.ar    1  UNL1       -0.0499
      7 C           5.9550    2.1800   -0.1270 C.ar    1  UNL1       -0.0258
      8 C           5.1550    2.7400   -1.1140 C.ar    1  UNL1        0.1234
      9 F           5.7260    3.3340   -2.1700 F       1  UNL1       -0.2055
     10 C           3.7690    2.6930   -1.0220 C.ar    1  UNL1       -0.0258
     11 C           3.1720    2.0730    0.0790 C.ar    1  UNL1       -0.0499
     12 C           2.3650   -0.0800    2.3170 C.ar    1  UNL1        0.0747
     13 C           1.6120   -0.7580    1.2640 C.ar    1  UNL1        0.0051
     14 C           2.2610   -1.3640    0.1910 C.ar    1  UNL1       -0.0343
     15 C           1.4890   -2.0050   -0.7600 C.ar    1  UNL1        0.0303
     16 N           0.1420   -2.0750   -0.7130 N.ar    1  UNL1       -0.2405
     17 C          -0.4810   -1.4840    0.3220 C.ar    1  UNL1        0.1195
     18 N          -1.8650   -1.6020    0.3210 N.pl3   1  UNL1       -0.3262
     19 C          -2.6570   -0.3690    0.4320 C.3     1  UNL1        0.0221
     20 C          -2.5250    0.5110   -0.8210 C.3     1  UNL1       -0.0322
     21 C          -3.2190   -0.0840   -2.0500 C.3     1  UNL1       -0.0252
     22 C          -4.6780   -0.4340   -1.7670 C.3     1  UNL1        0.0554
     23 O          -5.4130    0.7650   -1.5290 O.3     1  UNL1       -0.3918
     24 C          -4.8160   -1.3380   -0.5450 C.3     1  UNL1       -0.0252
     25 C          -4.1240   -0.7510    0.6890 C.3     1  UNL1       -0.0322
     26 C           0.2170   -0.8320    1.3300 C.ar    1  UNL1       -0.0127
     27 N           2.1300   -0.3490    3.6480 N.ar    1  UNL1       -0.3056
     28 H           4.4410    1.8300    3.7960 H       1  UNL1        0.1705
     29 H           5.9960    1.1150    1.7370 H       1  UNL1        0.0625
     30 H           7.0360    2.2280   -0.2200 H       1  UNL1        0.0646
     31 H           3.1630    3.1420   -1.8020 H       1  UNL1        0.0646
     32 H           2.0860    2.0530    0.1460 H       1  UNL1        0.0625
     33 H           3.3410   -1.3550    0.0950 H       1  UNL1        0.0639
     34 H           1.9480   -2.4980   -1.6120 H       1  UNL1        0.0830
     35 H          -2.0740   -2.1330   -0.5220 H       1  UNL1        0.1477
     36 H          -2.3210    0.2060    1.3030 H       1  UNL1        0.0498
     37 H          -2.9700    1.4920   -0.6060 H       1  UNL1        0.0284
     38 H          -1.4720    0.7010   -1.0600 H       1  UNL1        0.0284
     39 H          -2.6820   -0.9800   -2.3820 H       1  UNL1        0.0291
     40 H          -3.1630    0.6470   -2.8660 H       1  UNL1        0.0291
     41 H          -5.1240   -0.9270   -2.6390 H       1  UNL1        0.0593
     42 H          -5.4020    1.2830   -2.3530 H       1  UNL1        0.2098
     43 H          -4.3970   -2.3260   -0.7690 H       1  UNL1        0.0291
     44 H          -5.8770   -1.4830   -0.3090 H       1  UNL1        0.0291
     45 H          -4.1900   -1.4690    1.5150 H       1  UNL1        0.0284
     46 H          -4.6700    0.1460    1.0090 H       1  UNL1        0.0284
     47 H          -0.3190   -0.3930    2.1640 H       1  UNL1        0.0658
     48 H           1.4710   -1.0150    4.0210 H       1  UNL1        0.1705
@<TRIPOS>BOND
     1     1     2    2
     2     2     3   ar
     3     2    27   ar
     4     3     4   ar
     5     3    28    1
     6     4     5    1
     7     4    12   ar
     8     5     6   ar
     9     5    11   ar
    10     6     7   ar
    11     6    29    1
    12     7     8   ar
    13     7    30    1
    14     8     9    1
    15     8    10   ar
    16    10    11   ar
    17    10    31    1
    18    11    32    1
    19    12    13    1
    20    12    27   ar
    21    13    14   ar
    22    13    26   ar
    23    14    15   ar
    24    14    33    1
    25    15    16   ar
    26    15    34    1
    27    16    17   ar
    28    17    18    1
    29    17    26   ar
    30    18    19    1
    31    18    35    1
    32    19    20    1
    33    19    25    1
    34    19    36    1
    35    20    21    1
    36    20    37    1
    37    20    38    1
    38    21    22    1
    39    21    39    1
    40    21    40    1
    41    22    23    1
    42    22    24    1
    43    22    41    1
    44    23    42    1
    45    24    25    1
    46    24    43    1
    47    24    44    1
    48    25    45    1
    49    25    46    1
    50    26    47    1
    51    27    48    1
@<TRIPOS>MOLECULE
AD3CC00020404-I00-C00
 40 42 0 0 0
SMALL
GASTEIGER

@<TRIPOS>ATOM
      1 C           0.2080    0.6150   -3.7870 C.3     1  UNL1       -0.0388
      2 C           0.5380   -0.7410   -3.2250 C.ar    1  UNL1       -0.0335
      3 C           0.4540   -1.8640   -4.0650 C.ar    1  UNL1       -0.0165
      4 C           0.7660   -3.1300   -3.5820 C.ar    1  UNL1        0.1172
      5 O           0.6670   -4.1810   -4.4450 O.3     1  UNL1       -0.5068
      6 C           1.1630   -3.3120   -2.2650 C.ar    1  UNL1       -0.0194
      7 C           1.2450   -2.2040   -1.4190 C.ar    1  UNL1       -0.0445
      8 C           0.9370   -0.9090   -1.8790 C.ar    1  UNL1        0.0525
      9 C           1.0060    0.2210   -0.9360 C.ar    1  UNL1        0.2479
     10 C          -0.1020    0.6070   -0.1320 C.ar    1  UNL1        0.1098
     11 N          -1.2810   -0.1840   -0.1070 N.pl3   1  UNL1       -0.3523
     12 C           0.0690    1.6490    0.8030 C.ar    1  UNL1        0.0551
     13 C          -1.0530    2.0370    1.6940 C.2     1  UNL1        0.1981
     14 O          -2.1720    2.1710    1.2020 O.2     1  UNL1       -0.2865
     15 C          -0.8630    2.2820    3.1430 C.ar    1  UNL1        0.0576
     16 C          -1.7380    3.1680    3.7890 C.ar    1  UNL1       -0.0454
     17 C          -1.6010    3.4140    5.1570 C.ar    1  UNL1       -0.0256
     18 C          -0.5990    2.7660    5.8740 C.ar    1  UNL1        0.1262
     19 F          -0.4700    3.0030    7.1850 F       1  UNL1       -0.2054
     20 C           0.2650    1.8740    5.2530 C.ar    1  UNL1        0.0095
     21 C           0.1240    1.6320    3.8900 C.ar    1  UNL1        0.1369
     22 F           0.9530    0.7470    3.3190 F       1  UNL1       -0.2047
     23 C           1.2600    2.3720    0.8560 C.ar    1  UNL1        0.0160
     24 C           2.3090    2.0020    0.0240 C.ar    1  UNL1        0.1842
     25 N           2.2120    0.9360   -0.8620 N.ar    1  UNL1       -0.1688
     26 O           3.2310    0.6530   -1.5730 O.co2   1  UNL1       -0.6193
     27 H           1.0730    1.2810   -3.7110 H       1  UNL1        0.0278
     28 H          -0.0680    0.5560   -4.8450 H       1  UNL1        0.0278
     29 H          -0.6410    1.0540   -3.2520 H       1  UNL1        0.0278
     30 H           0.1550   -1.7570   -5.1050 H       1  UNL1        0.0657
     31 H           0.9830   -4.9810   -3.9940 H       1  UNL1        0.2921
     32 H           1.4100   -4.2950   -1.8790 H       1  UNL1        0.0654
     33 H           1.5560   -2.3540   -0.3860 H       1  UNL1        0.0627
     34 H          -2.1000    0.3580    0.1900 H       1  UNL1        0.1425
     35 H          -1.4630   -0.6850   -0.9750 H       1  UNL1        0.1425
     36 H          -2.5290    3.6660    3.2300 H       1  UNL1        0.0626
     37 H          -2.2710    4.0990    5.6680 H       1  UNL1        0.0646
     38 H           1.0320    1.3660    5.8260 H       1  UNL1        0.0675
     39 H           1.3890    3.2120    1.5310 H       1  UNL1        0.0685
     40 H           3.2740    2.4890   -0.0050 H       1  UNL1        0.1390
@<TRIPOS>UNITY_ATOM_ATTR
25 1
charge 1
26 1
charge -1
@<TRIPOS>BOND
     1     1     2    1
     2     1    27    1
     3     1    28    1
     4     1    29    1
     5     2     3   ar
     6     2     8   ar
     7     3     4   ar
     8     3    30    1
     9     4     5    1
    10     4     6   ar
    11     5    31    1
    12     6     7   ar
    13     6    32    1
    14     7     8   ar
    15     7    33    1
    16     8     9    1
    17     9    10   ar
    18     9    25   ar
    19    10    11    1
    20    10    12   ar
    21    11    34    1
    22    11    35    1
    23    12    13    1
    24    12    23   ar
    25    13    14    2
    26    13    15    1
    27    15    16   ar
    28    15    21   ar
    29    16    17   ar
    30    16    36    1
    31    17    18   ar
    32    17    37    1
    33    18    19    1
    34    18    20   ar
    35    20    21   ar
    36    20    38    1
    37    21    22    1
    38    23    24   ar
    39    23    39    1
    40    24    25   ar
    41    24    40    1
    42    25    26    1
@<TRIPOS>MOLECULE
AD3CC00020406-I00-C00
 49 52 0 0 0
SMALL
GASTEIGER

@<TRIPOS>ATOM
      1 C           2.7910   -0.1670    0.0350 C.3     1  UNL1        0.0168
      2 N           1.8660   -0.1400   -1.0840 N.ar    1  UNL1       -0.2928
      3 C           2.2620    0.4070   -2.2980 C.ar    1  UNL1        0.2951
      4 O           3.3900    0.8590   -2.4940 O.2     1  UNL1       -0.2636
      5 C           1.2400    0.4190   -3.4100 C.ar    1  UNL1        0.1934
      6 O           1.5520    0.9690   -4.6510 O.3     1  UNL1       -0.4477
      7 C           2.0620    2.2450   -4.6850 C.ar    1  UNL1        0.1639
      8 C           3.1080    2.4800   -5.5810 C.ar    1  UNL1       -0.0137
      9 C           3.6540    3.7600   -5.6890 C.ar    1  UNL1       -0.0228
     10 C           3.1400    4.7950   -4.9120 C.ar    1  UNL1        0.1264
     11 F           3.6650    6.0220   -5.0220 F       1  UNL1       -0.2054
     12 C           2.0870    4.5800   -4.0330 C.ar    1  UNL1        0.0125
     13 C           1.5470    3.3040   -3.9290 C.ar    1  UNL1        0.1681
     14 F           0.5090    3.1120   -3.1010 F       1  UNL1       -0.2015
     15 C           0.0480   -0.1660   -3.2370 C.ar    1  UNL1       -0.0018
     16 C          -0.2960   -0.7470   -1.9520 C.ar    1  UNL1        0.0394
     17 C          -1.5080   -1.3420   -1.6910 C.ar    1  UNL1        0.0419
     18 N          -1.8330   -1.8770   -0.5000 N.ar    1  UNL1       -0.2222
     19 C          -0.9100   -1.8180    0.4670 C.ar    1  UNL1        0.2173
     20 N          -1.1610   -2.3500    1.7180 N.pl3   1  UNL1       -0.3106
     21 C          -2.5410   -2.3410    2.1950 C.3     1  UNL1        0.0235
     22 C          -2.6590   -3.3190    3.3760 C.3     1  UNL1       -0.0322
     23 C          -1.9780   -2.8100    4.6490 C.3     1  UNL1       -0.0252
     24 C          -2.4560   -1.4110    5.0340 C.3     1  UNL1        0.0554
     25 O          -3.8310   -1.4660    5.4080 O.3     1  UNL1       -0.3918
     26 C          -2.3070   -0.4260    3.8770 C.3     1  UNL1       -0.0252
     27 C          -2.9890   -0.9280    2.6010 C.3     1  UNL1       -0.0322
     28 N           0.2940   -1.2560    0.3140 N.ar    1  UNL1       -0.1964
     29 C           0.5900   -0.7290   -0.8930 C.ar    1  UNL1        0.1484
     30 H           3.0150   -1.2070    0.2940 H       1  UNL1        0.0457
     31 H           2.3420    0.3450    0.8930 H       1  UNL1        0.0457
     32 H           3.7320    0.3360   -0.2050 H       1  UNL1        0.0457
     33 H           3.5070    1.6650   -6.1800 H       1  UNL1        0.0656
     34 H           4.4770    3.9560   -6.3690 H       1  UNL1        0.0647
     35 H           1.6890    5.3960   -3.4410 H       1  UNL1        0.0676
     36 H          -0.6810   -0.1880   -4.0400 H       1  UNL1        0.0664
     37 H          -2.2850   -1.4130   -2.4460 H       1  UNL1        0.0838
     38 H          -0.4590   -1.9760    2.3440 H       1  UNL1        0.1492
     39 H          -3.2090   -2.7150    1.4080 H       1  UNL1        0.0498
     40 H          -3.7220   -3.4910    3.5870 H       1  UNL1        0.0284
     41 H          -2.2330   -4.2930    3.1050 H       1  UNL1        0.0284
     42 H          -0.8900   -2.8000    4.5090 H       1  UNL1        0.0291
     43 H          -2.1920   -3.5140    5.4620 H       1  UNL1        0.0291
     44 H          -1.8930   -1.0460    5.9000 H       1  UNL1        0.0593
     45 H          -3.9010   -2.0440    6.1870 H       1  UNL1        0.2098
     46 H          -1.2430   -0.2460    3.6810 H       1  UNL1        0.0291
     47 H          -2.7540    0.5370    4.1510 H       1  UNL1        0.0291
     48 H          -2.8070   -0.2110    1.7920 H       1  UNL1        0.0284
     49 H          -4.0750   -0.9390    2.7620 H       1  UNL1        0.0284
@<TRIPOS>BOND
     1     1     2    1
     2     1    30    1
     3     1    31    1
     4     1    32    1
     5     2     3   ar
     6     2    29   ar
     7     3     4    2
     8     3     5   ar
     9     5     6    1
    10     5    15   ar
    11     6     7    1
    12     7     8   ar
    13     7    13   ar
    14     8     9   ar
    15     8    33    1
    16     9    10   ar
    17     9    34    1
    18    10    11    1
    19    10    12   ar
    20    12    13   ar
    21    12    35    1
    22    13    14    1
    23    15    16   ar
    24    15    36    1
    25    16    17   ar
    26    16    29   ar
    27    17    18   ar
    28    17    37    1
    29    18    19   ar
    30    19    20    1
    31    19    28   ar
    32    20    21    1
    33    20    38    1
    34    21    22    1
    35    21    27    1
    36    21    39    1
    37    22    23    1
    38    22    40    1
    39    22    41    1
    40    23    24    1
    41    23    42    1
    42    23    43    1
    43    24    25    1
    44    24    26    1
    45    24    44    1
    46    25    45    1
    47    26    27    1
    48    26    46    1
    49    26    47    1
    50    27    48    1
    51    27    49    1
    52    28    29   ar
@<TRIPOS>MOLECULE
AD3CC00021074-I00-C01
 39 42 0 0 0
SMALL
GASTEIGER

@<TRIPOS>ATOM
      1 N          -1.6290   -3.5570   -0.8820 N.pl3   1  UNL1       -0.3275
      2 C          -1.3610   -2.4920   -0.0490 C.ar    1  UNL1        0.2131
      3 N          -1.9330   -2.4940    1.1570 N.ar    1  UNL1       -0.2231
      4 C          -1.6670   -1.4410    1.9510 C.ar    1  UNL1        0.0333
      5 C          -0.8650   -0.3950    1.5730 C.ar    1  UNL1       -0.0159
      6 C          -0.3410   -0.4840    0.3040 C.ar    1  UNL1        0.0945
      7 C           0.5240    0.5510   -0.2480 C.ar    1  UNL1        0.0950
      8 C           0.4050    1.9370   -0.2870 C.ar    1  UNL1        0.0982
      9 C          -0.7170    2.7360    0.1770 C.ar    1  UNL1        0.0027
     10 C          -0.4690    3.9040    0.9140 C.ar    1  UNL1       -0.0498
     11 C          -1.5280    4.6900    1.3720 C.ar    1  UNL1       -0.0258
     12 C          -2.8340    4.3130    1.0830 C.ar    1  UNL1        0.1234
     13 F          -3.8510    5.0650    1.5220 F       1  UNL1       -0.2055
     14 C          -3.1010    3.1700    0.3380 C.ar    1  UNL1       -0.0258
     15 C          -2.0420    2.3830   -0.1210 C.ar    1  UNL1       -0.0498
     16 N           1.5320    2.5220   -0.8170 N.ar    1  UNL1       -0.2351
     17 C           2.3060    1.5230   -1.1640 C.ar    1  UNL1        0.0971
     18 N           1.7440    0.3150   -0.8550 N.ar    1  UNL1       -0.3281
     19 C           2.4050   -0.9630   -1.0780 C.3     1  UNL1        0.0276
     20 C           2.1700   -1.4750   -2.4670 C.3     1  UNL1       -0.0230
     21 C           3.0990   -2.5050   -3.0600 C.3     1  UNL1       -0.0483
     22 C           3.0910   -1.1030   -3.6030 C.3     1  UNL1       -0.0483
     23 N          -0.5800   -1.5200   -0.5220 N.ar    1  UNL1       -0.2131
     24 H          -2.4980   -3.9920   -0.6040 H       1  UNL1        0.1452
     25 H          -1.5440   -3.2690   -1.8460 H       1  UNL1        0.1452
     26 H          -2.1340   -1.4670    2.9310 H       1  UNL1        0.0831
     27 H          -0.6640    0.4360    2.2350 H       1  UNL1        0.0655
     28 H           0.5550    4.2040    1.1270 H       1  UNL1        0.0625
     29 H          -1.3410    5.5930    1.9430 H       1  UNL1        0.0646
     30 H          -4.1280    2.9040    0.1110 H       1  UNL1        0.0646
     31 H          -2.2600    1.5060   -0.7270 H       1  UNL1        0.0625
     32 H           3.2770    1.6140   -1.6350 H       1  UNL1        0.1029
     33 H           2.0490   -1.6800   -0.3320 H       1  UNL1        0.0495
     34 H           3.4740   -0.8100   -0.8820 H       1  UNL1        0.0495
     35 H           1.1130   -1.5860   -2.6860 H       1  UNL1        0.0318
     36 H           2.6620   -3.2890   -3.6690 H       1  UNL1        0.0269
     37 H           3.9630   -2.8230   -2.4870 H       1  UNL1        0.0269
     38 H           3.9530   -0.4770   -3.4020 H       1  UNL1        0.0269
     39 H           2.6460   -0.9380   -4.5790 H       1  UNL1        0.0269
@<TRIPOS>BOND
     1     1     2    1
     2     1    24    1
     3     1    25    1
     4     2     3   ar
     5     2    23   ar
     6     3     4   ar
     7     4     5   ar
     8     4    26    1
     9     5     6   ar
    10     5    27    1
    11     6     7    1
    12     6    23   ar
    13     7     8   ar
    14     7    18   ar
    15     8     9    1
    16     8    16   ar
    17     9    10   ar
    18     9    15   ar
    19    10    11   ar
    20    10    28    1
    21    11    12   ar
    22    11    29    1
    23    12    13    1
    24    12    14   ar
    25    14    15   ar
    26    14    30    1
    27    15    31    1
    28    16    17   ar
    29    17    18   ar
    30    17    32    1
    31    18    19    1
    32    19    20    1
    33    19    33    1
    34    19    34    1
    35    20    21    1
    36    20    22    1
    37    20    35    1
    38    21    22    1
    39    21    36    1
    40    21    37    1
    41    22    38    1
    42    22    39    1
@<TRIPOS>MOLECULE
AD3CC00021690-I00-C00
 51 54 0 0 0
SMALL
GASTEIGER

@<TRIPOS>ATOM
      1 O           0.9910    3.0310    0.4820 O.2     1  UNL1       -0.2449
      2 C           0.3120    2.1790   -0.0680 C.2     1  UNL1        0.3398
      3 O           0.4540    0.8420    0.0710 O.3     1  UNL1       -0.4534
      4 C           1.4340    0.3940    1.0390 C.3     1  UNL1        0.1483
      5 C           2.8310    0.4120    0.4160 C.3     1  UNL1        0.0204
      6 C           3.0680   -0.7660   -0.4920 C.ar    1  UNL1        0.0395
      7 C           4.1610   -0.8190   -1.3700 C.ar    1  UNL1        0.1271
      8 O           5.0990    0.1730   -1.4570 O.3     1  UNL1       -0.5063
      9 C           4.3580   -1.9060   -2.2210 C.ar    1  UNL1        0.0218
     10 C           3.4580   -2.9630   -2.1940 C.ar    1  UNL1        0.1238
     11 O           3.6060   -4.0440   -3.0110 O.3     1  UNL1       -0.5065
     12 C           2.3780   -2.9490   -1.3230 C.ar    1  UNL1        0.0221
     13 C           2.1930   -1.8640   -0.4650 C.ar    1  UNL1        0.1318
     14 O           1.1000   -1.9500    0.3560 O.3     1  UNL1       -0.4800
     15 C           1.1070   -1.0460    1.4700 C.3     1  UNL1        0.1624
     16 C          -0.2410   -1.1180    2.1760 C.ar    1  UNL1        0.0034
     17 C          -1.4360   -1.3100    1.4530 C.ar    1  UNL1       -0.0095
     18 C          -2.6580   -1.3300    2.1180 C.ar    1  UNL1        0.1623
     19 O          -3.8410   -1.5020    1.4540 O.3     1  UNL1       -0.5032
     20 C          -2.7060   -1.1640    3.4950 C.ar    1  UNL1        0.2006
     21 O          -3.9030   -1.1810    4.1580 O.3     1  UNL1       -0.5009
     22 C          -1.5360   -0.9740    4.2170 C.ar    1  UNL1        0.1623
     23 O          -1.5850   -0.8060    5.5700 O.3     1  UNL1       -0.5032
     24 C          -0.3050   -0.9480    3.5720 C.ar    1  UNL1       -0.0095
     25 C          -0.8190    2.4890   -0.9830 C.ar    1  UNL1        0.0661
     26 C          -1.5430    1.4800   -1.6390 C.ar    1  UNL1       -0.0023
     27 C          -2.6070    1.8300   -2.4590 C.ar    1  UNL1        0.1628
     28 O          -3.3200    0.8490   -3.0830 O.3     1  UNL1       -0.5032
     29 C          -2.9480    3.1630   -2.6410 C.ar    1  UNL1        0.2006
     30 O          -4.0010    3.4730   -3.4580 O.3     1  UNL1       -0.5009
     31 C          -2.2300    4.1660   -2.0000 C.ar    1  UNL1        0.1628
     32 O          -2.6130    5.4600   -2.2170 O.3     1  UNL1       -0.5032
     33 C          -1.1640    3.8400   -1.1680 C.ar    1  UNL1       -0.0023
     34 H           1.4050    1.0600    1.9120 H       1  UNL1        0.0778
     35 H           3.5830    0.3760    1.2140 H       1  UNL1        0.0353
     36 H           2.9700    1.3390   -0.1500 H       1  UNL1        0.0353
     37 H           4.9160    0.8660   -0.8050 H       1  UNL1        0.2921
     38 H           5.2110   -1.9080   -2.8910 H       1  UNL1        0.0691
     39 H           4.3940   -3.9090   -3.5640 H       1  UNL1        0.2921
     40 H           1.6840   -3.7840   -1.3060 H       1  UNL1        0.0691
     41 H           1.8700   -1.4090    2.1730 H       1  UNL1        0.0822
     42 H          -1.3940   -1.4380    0.3740 H       1  UNL1        0.0659
     43 H          -3.6460   -1.5840    0.5030 H       1  UNL1        0.2923
     44 H          -4.5620   -1.3310    3.4490 H       1  UNL1        0.2924
     45 H          -2.5380   -0.8700    5.7880 H       1  UNL1        0.2923
     46 H           0.5940   -0.7930    4.1610 H       1  UNL1        0.0659
     47 H          -1.2910    0.4300   -1.5220 H       1  UNL1        0.0663
     48 H          -3.9930    1.3280   -3.6090 H       1  UNL1        0.2923
     49 H          -4.0500    4.4520   -3.4300 H       1  UNL1        0.2924
     50 H          -2.0280    6.0460   -1.7030 H       1  UNL1        0.2923
     51 H          -0.5990    4.6150   -0.6560 H       1  UNL1        0.0663
@<TRIPOS>BOND
     1     1     2    2
     2     2     3    1
     3     2    25    1
     4     3     4    1
     5     4     5    1
     6     4    15    1
     7     4    34    1
     8     5     6    1
     9     5    35    1
    10     5    36    1
    11     6     7   ar
    12     6    13   ar
    13     7     8    1
    14     7     9   ar
    15     8    37    1
    16     9    10   ar
    17     9    38    1
    18    10    11    1
    19    10    12   ar
    20    11    39    1
    21    12    13   ar
    22    12    40    1
    23    13    14    1
    24    14    15    1
    25    15    16    1
    26    15    41    1
    27    16    17   ar
    28    16    24   ar
    29    17    18   ar
    30    17    42    1
    31    18    19    1
    32    18    20   ar
    33    19    43    1
    34    20    21    1
    35    20    22   ar
    36    21    44    1
    37    22    23    1
    38    22    24   ar
    39    23    45    1
    40    24    46    1
    41    25    26   ar
    42    25    33   ar
    43    26    27   ar
    44    26    47    1
    45    27    28    1
    46    27    29   ar
    47    28    48    1
    48    29    30    1
    49    29    31   ar
    50    30    49    1
    51    31    32    1
    52    31    33   ar
    53    32    50    1
    54    33    51    1
@<TRIPOS>MOLECULE
AD3CC00023467-I00-C01
 39 42 0 0 0
SMALL
GASTEIGER

@<TRIPOS>ATOM
      1 O           0.9490    1.2220   -2.6710 O.2     1  UNL1       -0.2521
      2 C           0.1190    1.3310   -1.7780 C.2     1  UNL1        0.3092
      3 N          -1.1320    1.8860   -1.9350 N.am    1  UNL1       -0.2539
      4 C          -1.7240    2.3770   -3.0990 C.ar    1  UNL1        0.1260
      5 C          -1.1730    2.2690   -4.3680 C.ar    1  UNL1       -0.0215
      6 C          -1.8740    2.7980   -5.4510 C.ar    1  UNL1       -0.0571
      7 C          -3.0990    3.4150   -5.2370 C.ar    1  UNL1       -0.0435
      8 C          -3.5760    3.4730   -3.9400 C.ar    1  UNL1        0.0297
      9 N          -2.9190    2.9680   -2.8720 N.ar    1  UNL1       -0.2401
     10 N           0.2980    0.9030   -0.4690 N.am    1  UNL1       -0.2688
     11 C           1.4650    0.3610    0.1090 C.ar    1  UNL1        0.0404
     12 C           2.7110    0.3280   -0.5360 C.ar    1  UNL1       -0.0401
     13 C           3.8570   -0.2020    0.0920 C.ar    1  UNL1       -0.0593
     14 C           3.7880   -0.7110    1.3850 C.ar    1  UNL1       -0.0492
     15 C           2.5590   -0.6600    2.0120 C.ar    1  UNL1        0.0436
     16 C           1.4060   -0.1490    1.4010 C.ar    1  UNL1        0.0063
     17 C           0.2710   -0.2520    2.3610 C.3     1  UNL1        0.0540
     18 C          -0.8760   -1.2010    2.0270 C.3     1  UNL1       -0.0286
     19 C          -1.3400   -1.6420    3.4180 C.3     1  UNL1       -0.0351
     20 C          -0.0340   -1.7860    4.1980 C.3     1  UNL1        0.0157
     21 N           0.8640   -0.8580    3.5410 N.am    1  UNL1       -0.2904
     22 C           2.2000   -1.1740    3.3420 C.2     1  UNL1        0.2475
     23 O           2.9320   -1.8310    4.0560 O.2     1  UNL1       -0.2700
     24 H          -1.6870    2.1020   -1.1230 H       1  UNL1        0.1578
     25 H          -0.2210    1.7850   -4.5470 H       1  UNL1        0.0652
     26 H          -1.4600    2.7270   -6.4530 H       1  UNL1        0.0619
     27 H          -3.6670    3.8360   -6.0590 H       1  UNL1        0.0633
     28 H          -4.5300    3.9430   -3.7170 H       1  UNL1        0.0830
     29 H          -0.5360    0.8970    0.0950 H       1  UNL1        0.1564
     30 H           2.8380    0.7210   -1.5410 H       1  UNL1        0.0636
     31 H           4.8030   -0.2130   -0.4450 H       1  UNL1        0.0618
     32 H           4.6540   -1.1340    1.8820 H       1  UNL1        0.0625
     33 H          -0.0980    0.7390    2.6530 H       1  UNL1        0.0551
     34 H          -1.6710   -0.7180    1.4510 H       1  UNL1        0.0287
     35 H          -0.5240   -2.0710    1.4580 H       1  UNL1        0.0287
     36 H          -1.9230   -2.5670    3.4000 H       1  UNL1        0.0281
     37 H          -1.9590   -0.8560    3.8670 H       1  UNL1        0.0281
     38 H           0.3640   -2.8040    4.1200 H       1  UNL1        0.0465
     39 H          -0.1390   -1.5170    5.2520 H       1  UNL1        0.0465
@<TRIPOS>BOND
     1     1     2    2
     2     2     3   am
     3     2    10   am
     4     3     4    1
     5     3    24    1
     6     4     5   ar
     7     4     9   ar
     8     5     6   ar
     9     5    25    1
    10     6     7   ar
    11     6    26    1
    12     7     8   ar
    13     7    27    1
    14     8     9   ar
    15     8    28    1
    16    10    11    1
    17    10    29    1
    18    11    12   ar
    19    11    16   ar
    20    12    13   ar
    21    12    30    1
    22    13    14   ar
    23    13    31    1
    24    14    15   ar
    25    14    32    1
    26    15    16   ar
    27    15    22    1
    28    16    17    1
    29    17    18    1
    30    17    21    1
    31    17    33    1
    32    18    19    1
    33    18    34    1
    34    18    35    1
    35    19    20    1
    36    19    36    1
    37    19    37    1
    38    20    21    1
    39    20    38    1
    40    20    39    1
    41    21    22   am
    42    22    23    2
@<TRIPOS>MOLECULE
AD3CC00027630-I00-C01
 34 37 0 0 0
SMALL
GASTEIGER

@<TRIPOS>ATOM
      1 C          -0.7060    0.0820    4.2750 C.ar    1  UNL1       -0.0617
      2 C          -0.4840   -1.2710    4.0360 C.ar    1  UNL1       -0.0611
      3 C           0.2970   -1.6690    2.9480 C.ar    1  UNL1       -0.0525
      4 C           0.8620   -0.7200    2.0820 C.ar    1  UNL1        0.0027
      5 C           1.6670   -1.1620    0.9370 C.ar    1  UNL1        0.1002
      6 N           2.3990   -2.2900    1.0110 N.ar    1  UNL1       -0.1733
      7 N           3.0020   -2.3890   -0.1800 N.ar    1  UNL1       -0.2835
      8 C           2.6820   -1.3870   -1.0410 C.ar    1  UNL1        0.0307
      9 C           1.8060   -0.5690   -0.3600 C.ar    1  UNL1        0.0279
     10 C           1.2040    0.6070   -0.9660 C.ar    1  UNL1       -0.0037
     11 C           2.0390    1.6860   -1.2620 C.ar    1  UNL1       -0.0352
     12 C           1.4730    2.8150   -1.8120 C.ar    1  UNL1        0.0288
     13 N           0.1590    2.9370   -2.0820 N.ar    1  UNL1       -0.2549
     14 C          -0.6490    1.8980   -1.8080 C.ar    1  UNL1        0.0715
     15 C          -2.0010    2.0300   -2.0950 C.ar    1  UNL1       -0.0357
     16 C          -2.9140    1.0020   -1.8510 C.ar    1  UNL1       -0.0597
     17 C          -2.4710   -0.1940   -1.3090 C.ar    1  UNL1       -0.0611
     18 C          -1.1180   -0.3530   -1.0120 C.ar    1  UNL1       -0.0520
     19 C          -0.1840    0.6880   -1.2470 C.ar    1  UNL1        0.0082
     20 C           0.6400    0.6390    2.3430 C.ar    1  UNL1       -0.0525
     21 C          -0.1430    1.0370    3.4310 C.ar    1  UNL1       -0.0611
     22 H          -1.3130    0.3940    5.1210 H       1  UNL1        0.0618
     23 H          -0.9150   -2.0200    4.6960 H       1  UNL1        0.0618
     24 H           0.4640   -2.7310    2.7750 H       1  UNL1        0.0624
     25 H           3.6190   -3.1780   -0.3390 H       1  UNL1        0.1882
     26 H           3.0820   -1.3530   -2.0440 H       1  UNL1        0.0830
     27 H           3.1040    1.6550   -1.0570 H       1  UNL1        0.0639
     28 H           2.0780    3.6840   -2.0560 H       1  UNL1        0.0830
     29 H          -2.3550    2.9650   -2.5240 H       1  UNL1        0.0639
     30 H          -3.9660    1.1420   -2.0870 H       1  UNL1        0.0618
     31 H          -3.1710   -1.0030   -1.1150 H       1  UNL1        0.0618
     32 H          -0.7960   -1.3040   -0.5930 H       1  UNL1        0.0624
     33 H           1.0790    1.4090    1.7160 H       1  UNL1        0.0624
     34 H          -0.3090    2.0950    3.6190 H       1  UNL1        0.0618
@<TRIPOS>BOND
     1     1     2   ar
     2     1    21   ar
     3     1    22    1
     4     2     3   ar
     5     2    23    1
     6     3     4   ar
     7     3    24    1
     8     4     5    1
     9     4    20   ar
    10     5     6   ar
    11     5     9   ar
    12     6     7   ar
    13     7     8   ar
    14     7    25    1
    15     8     9   ar
    16     8    26    1
    17     9    10    1
    18    10    11   ar
    19    10    19   ar
    20    11    12   ar
    21    11    27    1
    22    12    13   ar
    23    12    28    1
    24    13    14   ar
    25    14    15   ar
    26    14    19   ar
    27    15    16   ar
    28    15    29    1
    29    16    17   ar
    30    16    30    1
    31    17    18   ar
    32    17    31    1
    33    18    19   ar
    34    18    32    1
    35    20    21   ar
    36    20    33    1
    37    21    34    1
@<TRIPOS>MOLECULE
AD3CC00029538-I00-C00
 63 67 0 0 0
SMALL
GASTEIGER

@<TRIPOS>ATOM
      1 C           0.7910    1.2640    7.9210 C.3     1  UNL1       -0.0012
      2 C           1.0950    2.0570    6.6770 C.2     1  UNL1        0.1656
      3 O           1.7430    3.1030    6.7280 O.2     1  UNL1       -0.2922
      4 C           0.5960    1.5360    5.3670 C.ar    1  UNL1        0.0852
      5 C           1.4470    1.3820    4.3320 C.ar    1  UNL1       -0.0227
      6 C           2.9330    1.6350    4.3980 C.3     1  UNL1       -0.0382
      7 C           0.8900    0.9160    3.0480 C.ar    1  UNL1        0.0395
      8 C           1.6290    0.7600    1.8910 C.ar    1  UNL1        0.0421
      9 N           1.1330    0.3230    0.7180 N.ar    1  UNL1       -0.2219
     10 C          -0.1670    0.0300    0.6750 C.ar    1  UNL1        0.2214
     11 N          -0.7880   -0.4350   -0.4790 N.pl3   1  UNL1       -0.2836
     12 C          -0.3560   -0.6820   -1.7840 C.ar    1  UNL1        0.0337
     13 C          -1.2760   -1.1740   -2.7160 C.ar    1  UNL1       -0.0387
     14 C          -0.8990   -1.4510   -4.0390 C.ar    1  UNL1       -0.0389
     15 C           0.4140   -1.2670   -4.4950 C.ar    1  UNL1        0.0299
     16 N           0.7430   -1.5440   -5.8220 N.pl3   1  UNL1       -0.3275
     17 C           2.0360   -1.1080   -6.3900 C.3     1  UNL1        0.0248
     18 C           3.1370   -2.1760   -6.1870 C.3     1  UNL1        0.0117
     19 N           2.7630   -3.5120   -6.6950 N.3     1  UNL1       -0.3130
     20 C           1.4650   -3.9130   -6.1160 C.3     1  UNL1        0.0117
     21 C           0.3440   -2.8720   -6.3490 C.3     1  UNL1        0.0248
     22 C           1.3180   -0.7510   -3.5600 C.ar    1  UNL1       -0.0389
     23 C           0.9460   -0.4750   -2.2320 C.ar    1  UNL1       -0.0387
     24 N          -0.9700    0.1560    1.7400 N.ar    1  UNL1       -0.1961
     25 C          -0.4500    0.5990    2.9040 C.ar    1  UNL1        0.1490
     26 N          -1.3210    0.7450    4.0210 N.ar    1  UNL1       -0.2890
     27 C          -2.7450    0.4060    3.8970 C.3     1  UNL1        0.0393
     28 C          -3.0350   -1.0850    3.6660 C.3     1  UNL1       -0.0319
     29 C          -4.3830   -1.0800    2.9600 C.3     1  UNL1       -0.0511
     30 C          -4.2880    0.1140    2.0230 C.3     1  UNL1       -0.0511
     31 C          -3.5360    1.1770    2.8220 C.3     1  UNL1       -0.0319
     32 C          -0.8530    1.1960    5.2480 C.ar    1  UNL1        0.2639
     33 O          -1.5740    1.3240    6.2380 O.2     1  UNL1       -0.2669
     34 H          -0.0130    1.7490    8.4780 H       1  UNL1        0.0309
     35 H           1.6920    1.2150    8.5390 H       1  UNL1        0.0309
     36 H           0.5030    0.2380    7.6740 H       1  UNL1        0.0309
     37 H           3.4900    0.7740    4.0120 H       1  UNL1        0.0278
     38 H           3.1980    2.5190    3.8090 H       1  UNL1        0.0278
     39 H           3.3090    1.7870    5.4130 H       1  UNL1        0.0278
     40 H           2.6900    0.9870    1.8460 H       1  UNL1        0.0838
     41 H          -1.7670   -0.5890   -0.2890 H       1  UNL1        0.1550
     42 H          -2.3120   -1.3400   -2.4320 H       1  UNL1        0.0637
     43 H          -1.6720   -1.7860   -4.7260 H       1  UNL1        0.0637
     44 H           1.8940   -0.9540   -7.4680 H       1  UNL1        0.0476
     45 H           2.3530   -0.1350   -5.9960 H       1  UNL1        0.0476
     46 H           3.3900   -2.2600   -5.1240 H       1  UNL1        0.0439
     47 H           4.0460   -1.8510   -6.7060 H       1  UNL1        0.0439
     48 H           3.4740   -4.1860   -6.4130 H       1  UNL1        0.1220
     49 H           1.5870   -4.0900   -5.0400 H       1  UNL1        0.0439
     50 H           1.1640   -4.8640   -6.5680 H       1  UNL1        0.0439
     51 H          -0.5920   -3.2450   -5.9200 H       1  UNL1        0.0476
     52 H           0.1640   -2.7720   -7.4280 H       1  UNL1        0.0476
     53 H           2.3520   -0.5570   -3.8240 H       1  UNL1        0.0637
     54 H           1.7100   -0.0870   -1.5660 H       1  UNL1        0.0637
     55 H          -3.2360    0.6580    4.8460 H       1  UNL1        0.0529
     56 H          -2.2850   -1.5700    3.0340 H       1  UNL1        0.0285
     57 H          -3.0690   -1.6420    4.6080 H       1  UNL1        0.0285
     58 H          -4.5740   -2.0140    2.4240 H       1  UNL1        0.0266
     59 H          -5.1910   -0.9290    3.6860 H       1  UNL1        0.0266
     60 H          -5.2720    0.4640    1.6970 H       1  UNL1        0.0266
     61 H          -3.7170   -0.1570    1.1280 H       1  UNL1        0.0266
     62 H          -4.2570    1.8430    3.3140 H       1  UNL1        0.0285
     63 H          -2.9240    1.8120    2.1740 H       1  UNL1        0.0285
@<TRIPOS>BOND
     1     1     2    1
     2     1    34    1
     3     1    35    1
     4     1    36    1
     5     2     3    2
     6     2     4    1
     7     4     5   ar
     8     4    32   ar
     9     5     6    1
    10     5     7   ar
    11     6    37    1
    12     6    38    1
    13     6    39    1
    14     7     8   ar
    15     7    25   ar
    16     8     9   ar
    17     8    40    1
    18     9    10   ar
    19    10    11    1
    20    10    24   ar
    21    11    12    1
    22    11    41    1
    23    12    13   ar
    24    12    23   ar
    25    13    14   ar
    26    13    42    1
    27    14    15   ar
    28    14    43    1
    29    15    16    1
    30    15    22   ar
    31    16    17    1
    32    16    21    1
    33    17    18    1
    34    17    44    1
    35    17    45    1
    36    18    19    1
    37    18    46    1
    38    18    47    1
    39    19    20    1
    40    19    48    1
    41    20    21    1
    42    20    49    1
    43    20    50    1
    44    21    51    1
    45    21    52    1
    46    22    23   ar
    47    22    53    1
    48    23    54    1
    49    24    25   ar
    50    25    26   ar
    51    26    27    1
    52    26    32   ar
    53    27    28    1
    54    27    31    1
    55    27    55    1
    56    28    29    1
    57    28    56    1
    58    28    57    1
    59    29    30    1
    60    29    58    1
    61    29    59    1
    62    30    31    1
    63    30    60    1
    64    30    61    1
    65    31    62    1
    66    31    63    1
    67    32    33    2
@<TRIPOS>MOLECULE
AD3CC00031082-I00-C00
 42 44 0 0 0
SMALL
GASTEIGER

@<TRIPOS>ATOM
      1 C           1.2050   -8.1520   -1.3750 C.3     1  UNL1        0.0125
      2 C           0.7560   -6.7290   -1.5990 C.2     1  UNL1        0.2141
      3 O           0.1040   -6.4270   -2.5930 O.2     1  UNL1       -0.2758
      4 N           1.1350   -5.8900   -0.5670 N.am    1  UNL1       -0.2857
      5 C           0.8930   -4.5060   -0.4530 C.ar    1  UNL1        0.0334
      6 C           1.3380   -3.8730    0.7140 C.ar    1  UNL1       -0.0398
      7 C           1.1360   -2.5020    0.9040 C.ar    1  UNL1       -0.0479
      8 C           0.4770   -1.7450   -0.0700 C.ar    1  UNL1        0.0371
      9 C           0.2820   -0.2870    0.1750 C.2     1  UNL1        0.2483
     10 O           1.1140    0.3050    0.8530 O.2     1  UNL1       -0.2699
     11 N          -0.8700    0.2470   -0.3660 N.am    1  UNL1       -0.2799
     12 C          -1.2710    1.6020   -0.3940 C.ar    1  UNL1        0.0551
     13 C          -0.4540    2.6600    0.0180 C.ar    1  UNL1       -0.0305
     14 C          -0.8630    3.9950   -0.1400 C.ar    1  UNL1       -0.0094
     15 C           0.0250    5.0890    0.2830 C.ar    1  UNL1        0.0194
     16 C           1.4020    5.1790    0.1660 C.ar    1  UNL1       -0.0469
     17 C           1.9280    6.3870    0.7090 C.ar    1  UNL1       -0.0541
     18 C           0.9390    7.1860    1.2350 C.ar    1  UNL1       -0.0237
     19 S          -0.6080    6.4790    1.0750 S.2     1  UNL1       -0.0967
     20 C          -2.1020    4.2480   -0.7440 C.ar    1  UNL1       -0.0517
     21 C          -2.9330    3.1980   -1.1430 C.ar    1  UNL1       -0.0386
     22 C          -2.5510    1.8730   -0.9230 C.ar    1  UNL1        0.0461
     23 N          -3.4020    0.8190   -1.3350 N.pl3   1  UNL1       -0.3565
     24 C           0.0510   -2.3680   -1.2470 C.ar    1  UNL1       -0.0479
     25 C           0.2540   -3.7420   -1.4320 C.ar    1  UNL1       -0.0398
     26 H           0.4680   -8.6710   -0.7580 H       1  UNL1        0.0323
     27 H           2.1830   -8.1820   -0.8850 H       1  UNL1        0.0323
     28 H           1.2960   -8.6590   -2.3400 H       1  UNL1        0.0323
     29 H           1.6290   -6.3180    0.2070 H       1  UNL1        0.1548
     30 H           1.8500   -4.4320    1.4930 H       1  UNL1        0.0636
     31 H           1.4920   -2.0260    1.8160 H       1  UNL1        0.0626
     32 H          -1.5170   -0.3720   -0.8360 H       1  UNL1        0.1552
     33 H           0.5200    2.4630    0.4530 H       1  UNL1        0.0643
     34 H           2.0100    4.4100   -0.2960 H       1  UNL1        0.0629
     35 H           2.9780    6.6530    0.7150 H       1  UNL1        0.0623
     36 H           1.0490    8.1510    1.7100 H       1  UNL1        0.0693
     37 H          -2.4330    5.2690   -0.9230 H       1  UNL1        0.0624
     38 H          -3.8860    3.4310   -1.6100 H       1  UNL1        0.0637
     39 H          -4.3320    1.1490   -1.5810 H       1  UNL1        0.1424
     40 H          -3.4720    0.1080   -0.6100 H       1  UNL1        0.1424
     41 H          -0.4150   -1.8020   -2.0500 H       1  UNL1        0.0626
     42 H          -0.0880   -4.1820   -2.3650 H       1  UNL1        0.0636
@<TRIPOS>BOND
     1     1     2    1
     2     1    26    1
     3     1    27    1
     4     1    28    1
     5     2     3    2
     6     2     4   am
     7     4     5    1
     8     4    29    1
     9     5     6   ar
    10     5    25   ar
    11     6     7   ar
    12     6    30    1
    13     7     8   ar
    14     7    31    1
    15     8     9    1
    16     8    24   ar
    17     9    10    2
    18     9    11   am
    19    11    12    1
    20    11    32    1
    21    12    13   ar
    22    12    22   ar
    23    13    14   ar
    24    13    33    1
    25    14    15    1
    26    14    20   ar
    27    15    16   ar
    28    15    19   ar
    29    16    17   ar
    30    16    34    1
    31    17    18   ar
    32    17    35    1
    33    18    19   ar
    34    18    36    1
    35    20    21   ar
    36    20    37    1
    37    21    22   ar
    38    21    38    1
    39    22    23    1
    40    23    39    1
    41    23    40    1
    42    24    25   ar
    43    24    41    1
    44    25    42    1
@<TRIPOS>MOLECULE
AD3CC00033491-I00-C00
 50 52 0 0 0
SMALL
GASTEIGER

@<TRIPOS>ATOM
      1 C          -0.4900   -5.5470   -1.3630 C.3     1  UNL1        0.0820
      2 O          -1.3520   -4.4110   -1.2930 O.3     1  UNL1       -0.4634
      3 C          -0.7510   -3.2940   -0.7940 C.2     1  UNL1        0.3572
      4 O           0.4170   -3.2240   -0.4270 O.2     1  UNL1       -0.2433
      5 C          -1.6920   -2.2030   -0.7620 C.ar    1  UNL1        0.1461
      6 N          -3.0030   -2.2900   -1.1740 N.ar    1  UNL1       -0.3509
      7 C          -3.6490   -1.0850   -1.0180 C.ar    1  UNL1        0.0238
      8 C          -5.1100   -0.9000   -1.3940 C.3     1  UNL1        0.0024
      9 C          -5.5780    0.5420   -1.1190 C.3     1  UNL1       -0.0547
     10 C          -5.3060   -1.1920   -2.8940 C.3     1  UNL1       -0.0547
     11 C          -5.9880   -1.8580   -0.5670 C.3     1  UNL1       -0.0547
     12 C          -2.7150   -0.2080   -0.4940 C.ar    1  UNL1       -0.0185
     13 C          -1.4900   -0.9010   -0.3340 C.ar    1  UNL1        0.0669
     14 N          -0.2720   -0.4530    0.1530 N.am    1  UNL1       -0.2671
     15 C           0.0120    0.8430    0.5600 C.2     1  UNL1        0.3082
     16 O          -0.7850    1.7720    0.5140 O.2     1  UNL1       -0.2522
     17 N           1.3180    0.9220    1.0250 N.am    1  UNL1       -0.2686
     18 C           2.0330    2.0630    1.4770 C.ar    1  UNL1        0.0425
     19 C           1.4850    3.3490    1.3780 C.ar    1  UNL1       -0.0398
     20 C           2.1910    4.4670    1.8140 C.ar    1  UNL1       -0.0594
     21 C           3.4620    4.3190    2.3530 C.ar    1  UNL1       -0.0539
     22 C           4.0500    3.0540    2.4650 C.ar    1  UNL1       -0.0161
     23 C           5.3390    2.9440    3.0130 C.ar    1  UNL1       -0.0540
     24 C           5.9630    1.7060    3.1440 C.ar    1  UNL1       -0.0612
     25 C           5.3030    0.5610    2.7270 C.ar    1  UNL1       -0.0611
     26 C           4.0190    0.6540    2.1800 C.ar    1  UNL1       -0.0523
     27 C           3.3480    1.8970    2.0280 C.ar    1  UNL1        0.0034
     28 H          -1.0640   -6.3830   -1.7730 H       1  UNL1        0.0661
     29 H          -0.1400   -5.8250   -0.3640 H       1  UNL1        0.0661
     30 H           0.3550   -5.3470   -2.0290 H       1  UNL1        0.0661
     31 H          -3.4210   -3.1370   -1.5380 H       1  UNL1        0.1659
     32 H          -5.4770    0.8020   -0.0580 H       1  UNL1        0.0238
     33 H          -4.9960    1.2710   -1.6960 H       1  UNL1        0.0238
     34 H          -6.6320    0.6750   -1.3900 H       1  UNL1        0.0238
     35 H          -5.0450   -2.2270   -3.1430 H       1  UNL1        0.0238
     36 H          -4.6780   -0.5380   -3.5100 H       1  UNL1        0.0238
     37 H          -6.3480   -1.0360   -3.1940 H       1  UNL1        0.0238
     38 H          -5.7430   -2.9070   -0.7650 H       1  UNL1        0.0238
     39 H          -5.8570   -1.6880    0.5080 H       1  UNL1        0.0238
     40 H          -7.0510   -1.7210   -0.8000 H       1  UNL1        0.0238
     41 H          -2.9000    0.8310   -0.2500 H       1  UNL1        0.0654
     42 H           0.4740   -1.1380    0.1470 H       1  UNL1        0.1564
     43 H           1.7840    0.0370    1.1170 H       1  UNL1        0.1564
     44 H           0.5010    3.5210    0.9550 H       1  UNL1        0.0636
     45 H           1.7440    5.4540    1.7280 H       1  UNL1        0.0618
     46 H           3.9930    5.2080    2.6860 H       1  UNL1        0.0624
     47 H           5.8720    3.8320    3.3460 H       1  UNL1        0.0624
     48 H           6.9600    1.6410    3.5700 H       1  UNL1        0.0618
     49 H           5.7830   -0.4100    2.8270 H       1  UNL1        0.0618
     50 H           3.5580   -0.2800    1.8760 H       1  UNL1        0.0624
@<TRIPOS>BOND
     1     1     2    1
     2     1    28    1
     3     1    29    1
     4     1    30    1
     5     2     3    1
     6     3     4    2
     7     3     5    1
     8     5     6   ar
     9     5    13   ar
    10     6     7   ar
    11     6    31    1
    12     7     8    1
    13     7    12   ar
    14     8     9    1
    15     8    10    1
    16     8    11    1
    17     9    32    1
    18     9    33    1
    19     9    34    1
    20    10    35    1
    21    10    36    1
    22    10    37    1
    23    11    38    1
    24    11    39    1
    25    11    40    1
    26    12    13   ar
    27    12    41    1
    28    13    14    1
    29    14    15   am
    30    14    42    1
    31    15    16    2
    32    15    17   am
    33    17    18    1
    34    17    43    1
    35    18    19   ar
    36    18    27   ar
    37    19    20   ar
    38    19    44    1
    39    20    21   ar
    40    20    45    1
    41    21    22   ar
    42    21    46    1
    43    22    23   ar
    44    22    27   ar
    45    23    24   ar
    46    23    47    1
    47    24    25   ar
    48    24    48    1
    49    25    26   ar
    50    25    49    1
    51    26    27   ar
    52    26    50    1
@<TRIPOS>MOLECULE
AD3CC00034216-I00-C00
 54 58 0 0 0
SMALL
GASTEIGER

@<TRIPOS>ATOM
      1 F          -5.0850    5.0330    3.0950 F       1  UNL1       -0.2055
      2 C          -4.0010    4.2540    2.9910 C.ar    1  UNL1        0.1234
      3 C          -3.5620    3.8570    1.7330 C.ar    1  UNL1       -0.0258
      4 C          -2.4320    3.0440    1.6220 C.ar    1  UNL1       -0.0498
      5 C          -1.7480    2.6200    2.7720 C.ar    1  UNL1        0.0027
      6 C          -0.5690    1.7740    2.6890 C.ar    1  UNL1        0.0982
      7 N           0.5390    2.0050    3.4650 N.ar    1  UNL1       -0.2351
      8 C           1.4110    1.0960    3.1010 C.ar    1  UNL1        0.0974
      9 N           0.9050    0.2410    2.1610 N.ar    1  UNL1       -0.3252
     10 C           1.5970   -0.9110    1.5770 C.3     1  UNL1        0.0383
     11 C           2.6270   -0.4990    0.5180 C.3     1  UNL1       -0.0194
     12 C           4.0010   -0.2020    1.1070 C.3     1  UNL1       -0.0022
     13 N           4.4730   -1.3210    1.9170 N.3     1  UNL1       -0.3158
     14 C           3.5980   -1.5770    3.0550 C.3     1  UNL1       -0.0022
     15 C           2.1730   -1.8950    2.6100 C.3     1  UNL1       -0.0194
     16 C          -0.3910    0.6580    1.8810 C.ar    1  UNL1        0.0953
     17 C          -1.2980   -0.0030    0.9530 C.ar    1  UNL1        0.0945
     18 C          -2.5280   -0.4700    1.3490 C.ar    1  UNL1       -0.0159
     19 C          -3.2640   -1.0690    0.3630 C.ar    1  UNL1        0.0333
     20 N          -2.8350   -1.2010   -0.9060 N.ar    1  UNL1       -0.2226
     21 C          -1.6230   -0.7030   -1.2060 C.ar    1  UNL1        0.2200
     22 N          -1.2250   -0.8830   -2.5270 N.pl3   1  UNL1       -0.2836
     23 C          -0.1590   -0.3920   -3.2890 C.ar    1  UNL1        0.0336
     24 C           0.0570   -0.9350   -4.5660 C.ar    1  UNL1       -0.0405
     25 C           1.1280   -0.5190   -5.3630 C.ar    1  UNL1       -0.0600
     26 C           2.0120    0.4460   -4.8900 C.ar    1  UNL1       -0.0616
     27 C           1.8230    0.9880   -3.6230 C.ar    1  UNL1       -0.0600
     28 C           0.7490    0.5670   -2.8300 C.ar    1  UNL1       -0.0405
     29 N          -0.8320   -0.1070   -0.3050 N.ar    1  UNL1       -0.2127
     30 C          -2.1960    3.0480    4.0300 C.ar    1  UNL1       -0.0498
     31 C          -3.3270    3.8610    4.1400 C.ar    1  UNL1       -0.0258
     32 H          -4.0950    4.1880    0.8470 H       1  UNL1        0.0646
     33 H          -2.0810    2.7630    0.6310 H       1  UNL1        0.0625
     34 H           2.4130    1.0260    3.4970 H       1  UNL1        0.1029
     35 H           0.8170   -1.4790    1.0580 H       1  UNL1        0.0529
     36 H           2.7310   -1.3220   -0.2020 H       1  UNL1        0.0297
     37 H           2.2790    0.3700   -0.0520 H       1  UNL1        0.0297
     38 H           3.9890    0.7220    1.6950 H       1  UNL1        0.0425
     39 H           4.7080   -0.0400    0.2860 H       1  UNL1        0.0425
     40 H           5.4170   -1.1230    2.2510 H       1  UNL1        0.1219
     41 H           3.9900   -2.4360    3.6110 H       1  UNL1        0.0425
     42 H           3.6210   -0.7330    3.7500 H       1  UNL1        0.0425
     43 H           1.5180   -1.9700    3.4870 H       1  UNL1        0.0297
     44 H           2.1850   -2.8930    2.1500 H       1  UNL1        0.0297
     45 H          -2.8930   -0.3760    2.3620 H       1  UNL1        0.0655
     46 H          -4.2510   -1.4740    0.5650 H       1  UNL1        0.0831
     47 H          -1.9490   -1.3790   -3.0250 H       1  UNL1        0.1550
     48 H          -0.6110   -1.6990   -4.9540 H       1  UNL1        0.0636
     49 H           1.2720   -0.9530   -6.3490 H       1  UNL1        0.0618
     50 H           2.8460    0.7720   -5.5050 H       1  UNL1        0.0618
     51 H           2.5080    1.7420   -3.2450 H       1  UNL1        0.0618
     52 H           0.6310    1.0210   -1.8510 H       1  UNL1        0.0636
     53 H          -1.6590    2.7510    4.9290 H       1  UNL1        0.0625
     54 H          -3.6770    4.1940    5.1120 H       1  UNL1        0.0646
@<TRIPOS>BOND
     1     1     2    1
     2     2     3   ar
     3     2    31   ar
     4     3     4   ar
     5     3    32    1
     6     4     5   ar
     7     4    33    1
     8     5     6    1
     9     5    30   ar
    10     6     7   ar
    11     6    16   ar
    12     7     8   ar
    13     8     9   ar
    14     8    34    1
    15     9    10    1
    16     9    16   ar
    17    10    11    1
    18    10    15    1
    19    10    35    1
    20    11    12    1
    21    11    36    1
    22    11    37    1
    23    12    13    1
    24    12    38    1
    25    12    39    1
    26    13    14    1
    27    13    40    1
    28    14    15    1
    29    14    41    1
    30    14    42    1
    31    15    43    1
    32    15    44    1
    33    16    17    1
    34    17    18   ar
    35    17    29   ar
    36    18    19   ar
    37    18    45    1
    38    19    20   ar
    39    19    46    1
    40    20    21   ar
    41    21    22    1
    42    21    29   ar
    43    22    23    1
    44    22    47    1
    45    23    24   ar
    46    23    28   ar
    47    24    25   ar
    48    24    48    1
    49    25    26   ar
    50    25    49    1
    51    26    27   ar
    52    26    50    1
    53    27    28   ar
    54    27    51    1
    55    28    52    1
    56    30    31   ar
    57    30    53    1
    58    31    54    1
@<TRIPOS>MOLECULE
AD3CC00035026-I00-C00
 74 78 0 0 0
SMALL
GASTEIGER

@<TRIPOS>ATOM
      1 C           2.0790    1.4930    1.7650 C.3     1  UNL1        0.0790
      2 O           1.7670    0.1450    1.4390 O.3     1  UNL1       -0.4914
      3 C           1.6930   -0.1840    0.1090 C.ar    1  UNL1        0.1623
      4 C           2.0150    0.6790   -0.9390 C.ar    1  UNL1       -0.0038
      5 C           1.8910    0.2780   -2.2960 C.ar    1  UNL1        0.0442
      6 C           2.1660    1.0750   -3.4260 C.ar    1  UNL1        0.1354
      7 N           2.5150    2.4350   -3.3680 N.pl3   1  UNL1       -0.2781
      8 C           1.7180    3.3870   -2.8160 C.ar    1  UNL1        0.1636
      9 N           0.7500    3.2050   -1.9460 N.ar    1  UNL1       -0.2327
     10 C           0.1610    4.4030   -1.6040 C.ar    1  UNL1        0.0405
     11 C           0.6700    5.5180   -2.2340 C.ar    1  UNL1        0.0198
     12 C           0.2630    6.9510   -2.1230 C.3     1  UNL1        0.0572
     13 C           0.1360    7.3460   -0.6570 C.2     1  UNL1        0.2221
     14 O           1.1340    7.5500    0.0280 O.2     1  UNL1       -0.2751
     15 N          -1.1810    7.4100   -0.2250 N.am    1  UNL1       -0.2851
     16 C          -1.6420    7.7220    1.0720 C.ar    1  UNL1        0.0361
     17 C          -3.0310    7.7030    1.2770 C.ar    1  UNL1       -0.0403
     18 C          -3.5770    7.9980    2.5300 C.ar    1  UNL1       -0.0573
     19 C          -2.7360    8.3180    3.5910 C.ar    1  UNL1       -0.0263
     20 C          -1.3620    8.3360    3.3880 C.ar    1  UNL1        0.1252
     21 F          -0.5540    8.6430    4.4120 F       1  UNL1       -0.2054
     22 C          -0.8080    8.0430    2.1440 C.ar    1  UNL1       -0.0052
     23 S           1.9320    5.0370   -3.2900 S.2     1  UNL1       -0.0566
     24 N           2.1480    0.5830   -4.6810 N.ar    1  UNL1       -0.2199
     25 C           1.7680   -0.6900   -4.8130 C.ar    1  UNL1        0.1187
     26 N           1.4270   -1.5180   -3.8230 N.ar    1  UNL1       -0.2352
     27 C           1.5000   -1.0360   -2.5780 C.ar    1  UNL1        0.0797
     28 C           1.1870   -1.8900   -1.5270 C.ar    1  UNL1        0.0098
     29 C           1.2670   -1.4860   -0.1900 C.ar    1  UNL1        0.1639
     30 O           0.9660   -2.2850    0.8840 O.3     1  UNL1       -0.4882
     31 C           0.4650   -3.5970    0.6210 C.3     1  UNL1        0.0909
     32 C           0.1510   -4.2460    1.9670 C.3     1  UNL1       -0.0058
     33 C          -0.4930   -5.6280    1.8290 C.3     1  UNL1        0.0020
     34 N           0.2930   -6.5980    1.0440 N.3     1  UNL1       -0.3022
     35 C           1.5520   -6.9560    1.7150 C.3     1  UNL1       -0.0008
     36 C           2.3690   -7.9500    0.8830 C.3     1  UNL1       -0.0352
     37 C           1.5760   -9.2120    0.5270 C.3     1  UNL1       -0.0155
     38 C           1.4090  -10.1310    1.7450 C.3     1  UNL1        0.0471
     39 O           0.7360  -11.3310    1.3800 O.3     1  UNL1       -0.3947
     40 C           0.2330   -8.8050   -0.0920 C.3     1  UNL1       -0.0352
     41 C          -0.5230   -7.7950    0.7730 C.3     1  UNL1       -0.0008
     42 H           2.0190    1.5960    2.8530 H       1  UNL1        0.0660
     43 H           3.1010    1.7410    1.4630 H       1  UNL1        0.0660
     44 H           1.3540    2.1870    1.3270 H       1  UNL1        0.0660
     45 H           2.3730    1.6810   -0.7310 H       1  UNL1        0.0663
     46 H           2.8250    2.6860   -4.3020 H       1  UNL1        0.1555
     47 H          -0.6450    4.3960   -0.8800 H       1  UNL1        0.0838
     48 H          -0.6840    7.1080   -2.6520 H       1  UNL1        0.0413
     49 H           0.9940    7.6270   -2.5820 H       1  UNL1        0.0413
     50 H          -1.9010    7.2010   -0.9050 H       1  UNL1        0.1548
     51 H          -3.7110    7.4560    0.4650 H       1  UNL1        0.0636
     52 H          -4.6540    7.9790    2.6750 H       1  UNL1        0.0619
     53 H          -3.1380    8.5500    4.5720 H       1  UNL1        0.0646
     54 H           0.2720    8.0760    2.0570 H       1  UNL1        0.0665
     55 H           1.7310   -1.0900   -5.8200 H       1  UNL1        0.1048
     56 H           0.8820   -2.8980   -1.7890 H       1  UNL1        0.0677
     57 H           1.2260   -4.1820    0.0920 H       1  UNL1        0.0697
     58 H          -0.4510   -3.5360    0.0220 H       1  UNL1        0.0697
     59 H           1.0590   -4.2890    2.5790 H       1  UNL1        0.0310
     60 H          -0.5340   -3.5930    2.5240 H       1  UNL1        0.0310
     61 H          -1.4660   -5.4800    1.3410 H       1  UNL1        0.0428
     62 H          -0.7040   -6.0260    2.8300 H       1  UNL1        0.0428
     63 H           2.1760   -6.0670    1.8510 H       1  UNL1        0.0427
     64 H           1.3590   -7.3690    2.7140 H       1  UNL1        0.0427
     65 H           2.6850   -7.4570   -0.0460 H       1  UNL1        0.0281
     66 H           3.2860   -8.2150    1.4220 H       1  UNL1        0.0281
     67 H           2.1330   -9.7740   -0.2350 H       1  UNL1        0.0324
     68 H           2.3840  -10.4060    2.1600 H       1  UNL1        0.0560
     69 H           0.8320   -9.6600    2.5450 H       1  UNL1        0.0560
     70 H           1.2690  -11.7670    0.6940 H       1  UNL1        0.2094
     71 H           0.4190   -8.3570   -1.0780 H       1  UNL1        0.0281
     72 H          -0.3980   -9.6830   -0.2690 H       1  UNL1        0.0281
     73 H          -0.8500   -8.2660    1.7090 H       1  UNL1        0.0427
     74 H          -1.4300   -7.5040    0.2290 H       1  UNL1        0.0427
@<TRIPOS>BOND
     1     1     2    1
     2     1    42    1
     3     1    43    1
     4     1    44    1
     5     2     3    1
     6     3     4   ar
     7     3    29   ar
     8     4     5   ar
     9     4    45    1
    10     5     6   ar
    11     5    27   ar
    12     6     7    1
    13     6    24   ar
    14     7     8    1
    15     7    46    1
    16     8     9   ar
    17     8    23   ar
    18     9    10   ar
    19    10    11   ar
    20    10    47    1
    21    11    12    1
    22    11    23   ar
    23    12    13    1
    24    12    48    1
    25    12    49    1
    26    13    14    2
    27    13    15   am
    28    15    16    1
    29    15    50    1
    30    16    17   ar
    31    16    22   ar
    32    17    18   ar
    33    17    51    1
    34    18    19   ar
    35    18    52    1
    36    19    20   ar
    37    19    53    1
    38    20    21    1
    39    20    22   ar
    40    22    54    1
    41    24    25   ar
    42    25    26   ar
    43    25    55    1
    44    26    27   ar
    45    27    28   ar
    46    28    29   ar
    47    28    56    1
    48    29    30    1
    49    30    31    1
    50    31    32    1
    51    31    57    1
    52    31    58    1
    53    32    33    1
    54    32    59    1
    55    32    60    1
    56    33    34    1
    57    33    61    1
    58    33    62    1
    59    34    35    1
    60    34    41    1
    61    35    36    1
    62    35    63    1
    63    35    64    1
    64    36    37    1
    65    36    65    1
    66    36    66    1
    67    37    38    1
    68    37    40    1
    69    37    67    1
    70    38    39    1
    71    38    68    1
    72    38    69    1
    73    39    70    1
    74    40    41    1
    75    40    71    1
    76    40    72    1
    77    41    73    1
    78    41    74    1
@<TRIPOS>MOLECULE
AD3CC00035689-I00-C00
 36 39 0 0 0
SMALL
GASTEIGER

@<TRIPOS>ATOM
      1 C           4.7360    0.2280    0.0920 C.3     1  UNL1       -0.0584
      2 C           4.5050   -1.2560   -0.1420 C.3     1  UNL1        0.0049
      3 C           3.3700   -1.7710    0.6710 C.ar    1  UNL1        0.1375
      4 N           3.4660   -2.3540    1.8500 N.ar    1  UNL1       -0.1337
      5 N           2.2010   -2.6900    2.2720 N.ar    1  UNL1       -0.1294
      6 C           1.3540   -2.3050    1.3450 C.ar    1  UNL1        0.1611
      7 C          -0.0560   -2.3950    1.2330 C.ar    1  UNL1       -0.0163
      8 C          -0.6680   -1.8930    0.1430 C.ar    1  UNL1       -0.0461
      9 C           0.0730   -1.2370   -0.9440 C.ar    1  UNL1        0.0361
     10 C          -0.5130   -0.6780   -2.1260 C.ar    1  UNL1        0.1641
     11 O           0.1080   -0.7380   -3.3680 O.2     1  UNL1       -0.4418
     12 C          -0.7630   -0.1750   -4.2400 C.ar    1  UNL1        0.1831
     13 N          -1.8740    0.2650   -3.7090 N.ar    1  UNL1       -0.2155
     14 C          -1.7190   -0.0140   -2.3690 C.ar    1  UNL1        0.1170
     15 C          -2.7310    0.3650   -1.3990 C.ar    1  UNL1        0.0042
     16 C          -4.0800    0.0950   -1.6740 C.ar    1  UNL1       -0.0497
     17 C          -5.0730    0.4550   -0.7610 C.ar    1  UNL1       -0.0258
     18 C          -4.7170    1.0950    0.4210 C.ar    1  UNL1        0.1234
     19 F          -5.6690    1.4400    1.2970 F       1  UNL1       -0.2055
     20 C          -3.3880    1.3870    0.7030 C.ar    1  UNL1       -0.0258
     21 C          -2.3930    1.0290   -0.2090 C.ar    1  UNL1       -0.0497
     22 C           1.4180   -1.1820   -0.8280 C.ar    1  UNL1        0.0236
     23 N           2.0430   -1.7080    0.3020 N.ar    1  UNL1       -0.2857
     24 H           4.9460    0.4340    1.1480 H       1  UNL1        0.0234
     25 H           5.5890    0.5770   -0.4980 H       1  UNL1        0.0234
     26 H           3.8600    0.8190   -0.1960 H       1  UNL1        0.0234
     27 H           4.3340   -1.4440   -1.2080 H       1  UNL1        0.0341
     28 H           5.4140   -1.8060    0.1280 H       1  UNL1        0.0341
     29 H          -0.6120   -2.8820    2.0260 H       1  UNL1        0.0655
     30 H          -1.7460   -1.9880    0.0450 H       1  UNL1        0.0626
     31 H          -0.4600   -0.1430   -5.2770 H       1  UNL1        0.1255
     32 H          -4.3610   -0.3940   -2.6050 H       1  UNL1        0.0625
     33 H          -6.1180    0.2470   -0.9670 H       1  UNL1        0.0646
     34 H          -3.1360    1.9000    1.6270 H       1  UNL1        0.0646
     35 H          -1.3590    1.2840    0.0130 H       1  UNL1        0.0625
     36 H           2.0600   -0.7330   -1.5770 H       1  UNL1        0.0821
@<TRIPOS>BOND
     1     1     2    1
     2     1    24    1
     3     1    25    1
     4     1    26    1
     5     2     3    1
     6     2    27    1
     7     2    28    1
     8     3     4   ar
     9     3    23   ar
    10     4     5   ar
    11     5     6   ar
    12     6     7   ar
    13     6    23   ar
    14     7     8   ar
    15     7    29    1
    16     8     9   ar
    17     8    30    1
    18     9    10    1
    19     9    22   ar
    20    10    11   ar
    21    10    14   ar
    22    11    12   ar
    23    12    13   ar
    24    12    31    1
    25    13    14   ar
    26    14    15    1
    27    15    16   ar
    28    15    21   ar
    29    16    17   ar
    30    16    32    1
    31    17    18   ar
    32    17    33    1
    33    18    19    1
    34    18    20   ar
    35    20    21   ar
    36    20    34    1
    37    21    35    1
    38    22    23   ar
    39    22    36    1
@<TRIPOS>MOLECULE
AD3CC00035723-I00-C00
 43 45 0 0 0
SMALL
GASTEIGER

@<TRIPOS>ATOM
      1 C           1.2900   -4.9560    1.9600 C.3     1  UNL1       -0.0593
      2 C           2.3560   -3.8730    2.0300 C.3     1  UNL1       -0.0068
      3 C           1.8800   -2.5970    1.4110 C.ar    1  UNL1        0.0793
      4 N           1.9600   -2.3300    0.1270 N.ar    1  UNL1       -0.2434
      5 C           1.4060   -1.0840   -0.1380 C.ar    1  UNL1        0.0862
      6 C           1.3670   -0.5890   -1.5100 C.ar    1  UNL1        0.0017
      7 C           2.4970   -0.7370   -2.3230 C.ar    1  UNL1       -0.0525
      8 C           2.4870   -0.2730   -3.6390 C.ar    1  UNL1       -0.0609
      9 C           1.3450    0.3390   -4.1550 C.ar    1  UNL1       -0.0588
     10 C           0.2030    0.4930   -3.3610 C.ar    1  UNL1       -0.0498
     11 C          -1.0430    1.1060   -3.9280 C.3     1  UNL1       -0.0397
     12 C           0.2160    0.0080   -2.0450 C.ar    1  UNL1       -0.0496
     13 C           0.9560   -0.3870    0.9770 C.ar    1  UNL1        0.0471
     14 C           0.4060    0.9630    1.1270 C.ar    1  UNL1       -0.0045
     15 C           1.1290    2.0660    0.6750 C.ar    1  UNL1       -0.0352
     16 C           0.5690    3.3200    0.8230 C.ar    1  UNL1        0.0303
     17 N          -0.6400    3.5410    1.3820 N.ar    1  UNL1       -0.2401
     18 C          -1.3340    2.4670    1.8160 C.ar    1  UNL1        0.1254
     19 N          -2.5680    2.8050    2.3730 N.am    1  UNL1       -0.2706
     20 C          -3.5280    1.9720    2.8910 C.2     1  UNL1        0.2152
     21 C          -4.7350    2.7170    3.4020 C.3     1  UNL1        0.0125
     22 O          -3.4830    0.7470    2.9390 O.2     1  UNL1       -0.2757
     23 C          -0.8510    1.1720    1.7080 C.ar    1  UNL1       -0.0132
     24 S           1.1870   -1.3630    2.3790 S.2     1  UNL1       -0.0715
     25 H           1.0020   -5.1610    0.9230 H       1  UNL1        0.0233
     26 H           0.3880   -4.6630    2.5070 H       1  UNL1        0.0233
     27 H           1.6660   -5.8860    2.3980 H       1  UNL1        0.0233
     28 H           3.2510   -4.2130    1.4970 H       1  UNL1        0.0331
     29 H           2.6530   -3.7150    3.0740 H       1  UNL1        0.0331
     30 H           3.3890   -1.2230   -1.9330 H       1  UNL1        0.0624
     31 H           3.3670   -0.3980   -4.2640 H       1  UNL1        0.0618
     32 H           1.3480    0.6870   -5.1860 H       1  UNL1        0.0620
     33 H          -1.6810    0.3280   -4.3570 H       1  UNL1        0.0278
     34 H          -0.8000    1.8350   -4.7090 H       1  UNL1        0.0278
     35 H          -1.6040    1.6370   -3.1520 H       1  UNL1        0.0278
     36 H          -0.6860    0.0890   -1.4410 H       1  UNL1        0.0627
     37 H           2.1060    1.9580    0.2170 H       1  UNL1        0.0639
     38 H           1.0930    4.2090    0.4850 H       1  UNL1        0.0830
     39 H          -2.7260    3.8040    2.3580 H       1  UNL1        0.1562
     40 H          -5.5130    2.7100    2.6340 H       1  UNL1        0.0323
     41 H          -5.1060    2.2240    4.3050 H       1  UNL1        0.0323
     42 H          -4.4910    3.7520    3.6590 H       1  UNL1        0.0323
     43 H          -1.4270    0.3220    2.0550 H       1  UNL1        0.0658
@<TRIPOS>BOND
     1     1     2    1
     2     1    25    1
     3     1    26    1
     4     1    27    1
     5     2     3    1
     6     2    28    1
     7     2    29    1
     8     3     4   ar
     9     3    24   ar
    10     4     5   ar
    11     5     6    1
    12     5    13   ar
    13     6     7   ar
    14     6    12   ar
    15     7     8   ar
    16     7    30    1
    17     8     9   ar
    18     8    31    1
    19     9    10   ar
    20     9    32    1
    21    10    11    1
    22    10    12   ar
    23    11    33    1
    24    11    34    1
    25    11    35    1
    26    12    36    1
    27    13    14    1
    28    13    24   ar
    29    14    15   ar
    30    14    23   ar
    31    15    16   ar
    32    15    37    1
    33    16    17   ar
    34    16    38    1
    35    17    18   ar
    36    18    19    1
    37    18    23   ar
    38    19    20   am
    39    19    39    1
    40    20    21    1
    41    20    22    2
    42    21    40    1
    43    21    41    1
    44    21    42    1
    45    23    43    1
@<TRIPOS>MOLECULE
AD3CC00035723-I00-C00
 43 45 0 0 0
SMALL
GASTEIGER

@<TRIPOS>ATOM
      1 C           1.2900   -4.9560    1.9600 C.3     1  UNL1       -0.0593
      2 C           2.3560   -3.8730    2.0300 C.3     1  UNL1       -0.0068
      3 C           1.8800   -2.5970    1.4110 C.ar    1  UNL1        0.0793
      4 N           1.9600   -2.3300    0.1270 N.ar    1  UNL1       -0.2434
      5 C           1.4060   -1.0840   -0.1380 C.ar    1  UNL1        0.0862
      6 C           1.3670   -0.5890   -1.5100 C.ar    1  UNL1        0.0017
      7 C           2.4970   -0.7370   -2.3230 C.ar    1  UNL1       -0.0525
      8 C           2.4870   -0.2730   -3.6390 C.ar    1  UNL1       -0.0609
      9 C           1.3450    0.3390   -4.1550 C.ar    1  UNL1       -0.0588
     10 C           0.2030    0.4930   -3.3610 C.ar    1  UNL1       -0.0498
     11 C          -1.0430    1.1060   -3.9280 C.3     1  UNL1       -0.0397
     12 C           0.2160    0.0080   -2.0450 C.ar    1  UNL1       -0.0496
     13 C           0.9560   -0.3870    0.9770 C.ar    1  UNL1        0.0471
     14 C           0.4060    0.9630    1.1270 C.ar    1  UNL1       -0.0045
     15 C           1.1290    2.0660    0.6750 C.ar    1  UNL1       -0.0352
     16 C           0.5690    3.3200    0.8230 C.ar    1  UNL1        0.0303
     17 N          -0.6400    3.5410    1.3820 N.ar    1  UNL1       -0.2401
     18 C          -1.3340    2.4670    1.8160 C.ar    1  UNL1        0.1254
     19 N          -2.5680    2.8050    2.3730 N.am    1  UNL1       -0.2706
     20 C          -3.5280    1.9720    2.8910 C.2     1  UNL1        0.2152
     21 C          -4.7350    2.7170    3.4020 C.3     1  UNL1        0.0125
     22 O          -3.4830    0.7470    2.9390 O.2     1  UNL1       -0.2757
     23 C          -0.8510    1.1720    1.7080 C.ar    1  UNL1       -0.0132
     24 S           1.1870   -1.3630    2.3790 S.2     1  UNL1       -0.0715
     25 H           1.0020   -5.1610    0.9230 H       1  UNL1        0.0233
     26 H           0.3880   -4.6630    2.5070 H       1  UNL1        0.0233
     27 H           1.6660   -5.8860    2.3980 H       1  UNL1        0.0233
     28 H           3.2510   -4.2130    1.4970 H       1  UNL1        0.0331
     29 H           2.6530   -3.7150    3.0740 H       1  UNL1        0.0331
     30 H           3.3890   -1.2230   -1.9330 H       1  UNL1        0.0624
     31 H           3.3670   -0.3980   -4.2640 H       1  UNL1        0.0618
     32 H           1.3480    0.6870   -5.1860 H       1  UNL1        0.0620
     33 H          -1.6810    0.3280   -4.3570 H       1  UNL1        0.0278
     34 H          -0.8000    1.8350   -4.7090 H       1  UNL1        0.0278
     35 H          -1.6040    1.6370   -3.1520 H       1  UNL1        0.0278
     36 H          -0.6860    0.0890   -1.4410 H       1  UNL1        0.0627
     37 H           2.1060    1.9580    0.2170 H       1  UNL1        0.0639
     38 H           1.0930    4.2090    0.4850 H       1  UNL1        0.0830
     39 H          -2.7260    3.8040    2.3580 H       1  UNL1        0.1562
     40 H          -5.5130    2.7100    2.6340 H       1  UNL1        0.0323
     41 H          -5.1060    2.2240    4.3050 H       1  UNL1        0.0323
     42 H          -4.4910    3.7520    3.6590 H       1  UNL1        0.0323
     43 H          -1.4270    0.3220    2.0550 H       1  UNL1        0.0658
@<TRIPOS>BOND
     1     1     2    1
     2     1    25    1
     3     1    26    1
     4     1    27    1
     5     2     3    1
     6     2    28    1
     7     2    29    1
     8     3     4   ar
     9     3    24   ar
    10     4     5   ar
    11     5     6    1
    12     5    13   ar
    13     6     7   ar
    14     6    12   ar
    15     7     8   ar
    16     7    30    1
    17     8     9   ar
    18     8    31    1
    19     9    10   ar
    20     9    32    1
    21    10    11    1
    22    10    12   ar
    23    11    33    1
    24    11    34    1
    25    11    35    1
    26    12    36    1
    27    13    14    1
    28    13    24   ar
    29    14    15   ar
    30    14    23   ar
    31    15    16   ar
    32    15    37    1
    33    16    17   ar
    34    16    38    1
    35    17    18   ar
    36    18    19    1
    37    18    23   ar
    38    19    20   am
    39    19    39    1
    40    20    21    1
    41    20    22    2
    42    21    40    1
    43    21    41    1
    44    21    42    1
    45    23    43    1
@<TRIPOS>MOLECULE
AD3CC00037006-I00-C00
 60 63 0 0 0
SMALL
GASTEIGER

@<TRIPOS>ATOM
      1 C           5.4670    4.0720   -0.2520 C.3     1  UNL1        0.0788
      2 O           5.8250    2.6980   -0.1580 O.3     1  UNL1       -0.4949
      3 C           4.9370    1.7910   -0.6700 C.ar    1  UNL1        0.1253
      4 C           3.7030    2.0900   -1.2540 C.ar    1  UNL1        0.0015
      5 C           2.8640    1.0770   -1.7520 C.ar    1  UNL1        0.0394
      6 N           1.6150    1.4560   -2.2770 N.pl3   1  UNL1       -0.2985
      7 C           0.4590    0.7230   -2.5520 C.ar    1  UNL1        0.1423
      8 N           0.3860   -0.6090   -2.1570 N.ar    1  UNL1       -0.1996
      9 C          -0.6820   -1.3250   -2.3410 C.ar    1  UNL1        0.2033
     10 N          -0.7750   -2.6410   -1.9290 N.pl3   1  UNL1       -0.3103
     11 C           0.1970   -3.2250   -1.0190 C.3     1  UNL1        0.0370
     12 C          -0.2090   -2.9610    0.4100 C.ar    1  UNL1       -0.0303
     13 C           0.2460   -1.8150    1.0740 C.ar    1  UNL1       -0.0565
     14 C          -0.1460   -1.5520    2.3900 C.ar    1  UNL1       -0.0543
     15 C          -1.0140   -2.4190    3.0640 C.ar    1  UNL1       -0.0248
     16 C          -1.3760   -2.1160    4.4550 C.2     1  UNL1       -0.0478
     17 C          -2.5730   -2.3880    4.9960 C.2     1  UNL1        0.0229
     18 C          -2.8360   -2.0310    6.3950 C.2     1  UNL1        0.3296
     19 O          -2.0810   -1.4900    7.1790 O.2     1  UNL1       -0.2458
     20 O          -4.0830   -2.3930    6.7360 O.3     1  UNL1       -0.4775
     21 C          -1.4620   -3.5700    2.4030 C.ar    1  UNL1       -0.0543
     22 C          -1.0710   -3.8350    1.0860 C.ar    1  UNL1       -0.0565
     23 N          -1.7810   -0.7430   -2.9870 N.ar    1  UNL1       -0.2713
     24 C          -2.9970   -1.2840   -3.3320 C.ar    1  UNL1        0.0324
     25 C          -3.6890   -0.2670   -3.9440 C.ar    1  UNL1        0.0465
     26 N          -2.9340    0.8740   -3.9890 N.ar    1  UNL1       -0.2351
     27 C          -1.7830    0.5640   -3.4130 C.ar    1  UNL1        0.1556
     28 C          -0.6050    1.3240   -3.1660 C.ar    1  UNL1        0.1191
     29 C          -0.5500    2.7730   -3.5710 C.2     1  UNL1        0.2484
     30 N          -1.6310    3.2740   -4.2290 N.am    1  UNL1       -0.3252
     31 O           0.4090    3.5040   -3.3300 O.2     1  UNL1       -0.2702
     32 C           3.3010   -0.2450   -1.6340 C.ar    1  UNL1        0.0015
     33 C           4.5320   -0.5640   -1.0490 C.ar    1  UNL1        0.1253
     34 O           4.8170   -1.9040   -1.0090 O.3     1  UNL1       -0.4949
     35 C           6.0560   -2.2770   -0.4210 C.3     1  UNL1        0.0788
     36 C           5.3450    0.4590   -0.5690 C.ar    1  UNL1        0.0219
     37 H           4.5590    4.2830    0.3230 H       1  UNL1        0.0660
     38 H           5.3580    4.3820   -1.2960 H       1  UNL1        0.0660
     39 H           6.2810    4.6590    0.1860 H       1  UNL1        0.0660
     40 H           3.3600    3.1170   -1.3270 H       1  UNL1        0.0673
     41 H           1.5530    2.4430   -2.5420 H       1  UNL1        0.1536
     42 H          -1.7070   -3.0070   -1.7850 H       1  UNL1        0.1492
     43 H           0.2310   -4.3070   -1.1910 H       1  UNL1        0.0512
     44 H           1.2140   -2.8650   -1.2110 H       1  UNL1        0.0512
     45 H           0.9110   -1.1150    0.5680 H       1  UNL1        0.0621
     46 H           0.2290   -0.6540    2.8760 H       1  UNL1        0.0624
     47 H          -0.6080   -1.6200    5.0470 H       1  UNL1        0.0626
     48 H          -3.3810   -2.8540    4.4470 H       1  UNL1        0.0689
     49 H          -4.1580   -2.1130    7.6720 H       1  UNL1        0.2954
     50 H          -2.1100   -4.2830    2.9070 H       1  UNL1        0.0624
     51 H          -1.4360   -4.7360    0.5980 H       1  UNL1        0.0621
     52 H          -3.2610   -2.3110   -3.1340 H       1  UNL1        0.0830
     53 H          -4.6890   -0.2990   -4.3590 H       1  UNL1        0.0845
     54 H          -1.6390    4.2460   -4.5000 H       1  UNL1        0.1453
     55 H          -2.4510    2.6990   -4.4130 H       1  UNL1        0.1453
     56 H           2.6990   -1.0600   -2.0210 H       1  UNL1        0.0673
     57 H           6.0980   -1.9840    0.6330 H       1  UNL1        0.0660
     58 H           6.9000   -1.8630   -0.9820 H       1  UNL1        0.0660
     59 H           6.1310   -3.3680   -0.4650 H       1  UNL1        0.0660
     60 H           6.3060    0.2560   -0.1090 H       1  UNL1        0.0691
@<TRIPOS>BOND
     1     1     2    1
     2     1    37    1
     3     1    38    1
     4     1    39    1
     5     2     3    1
     6     3     4   ar
     7     3    36   ar
     8     4     5   ar
     9     4    40    1
    10     5     6    1
    11     5    32   ar
    12     6     7    1
    13     6    41    1
    14     7     8   ar
    15     7    28   ar
    16     8     9   ar
    17     9    10    1
    18     9    23   ar
    19    10    11    1
    20    10    42    1
    21    11    12    1
    22    11    43    1
    23    11    44    1
    24    12    13   ar
    25    12    22   ar
    26    13    14   ar
    27    13    45    1
    28    14    15   ar
    29    14    46    1
    30    15    16    1
    31    15    21   ar
    32    16    17    2
    33    16    47    1
    34    17    18    1
    35    17    48    1
    36    18    19    2
    37    18    20    1
    38    20    49    1
    39    21    22   ar
    40    21    50    1
    41    22    51    1
    42    23    24   ar
    43    23    27   ar
    44    24    25   ar
    45    24    52    1
    46    25    26   ar
    47    25    53    1
    48    26    27   ar
    49    27    28   ar
    50    28    29    1
    51    29    30   am
    52    29    31    2
    53    30    54    1
    54    30    55    1
    55    32    33   ar
    56    32    56    1
    57    33    34    1
    58    33    36   ar
    59    34    35    1
    60    35    57    1
    61    35    58    1
    62    35    59    1
    63    36    60    1
@<TRIPOS>MOLECULE
AD3CC00037602-I00-C01
 39 42 0 0 0
SMALL
GASTEIGER

@<TRIPOS>ATOM
      1 C          -2.8220    3.7530    0.8590 C.3     1  UNL1       -0.0557
      2 C          -1.9950    3.9250   -0.4150 C.3     1  UNL1        0.0138
      3 C          -1.9270    5.4020   -0.8090 C.3     1  UNL1       -0.0557
      4 C          -0.6230    3.3530   -0.2280 C.ar    1  UNL1        0.1403
      5 N           0.4380    3.9950    0.2260 N.ar    1  UNL1       -0.1334
      6 N           1.5000    3.1240    0.2490 N.ar    1  UNL1       -0.1294
      7 C           1.0710    1.9590   -0.1790 C.ar    1  UNL1        0.1611
      8 C           1.7140    0.7100   -0.3710 C.ar    1  UNL1       -0.0163
      9 C           1.0020   -0.3400   -0.8220 C.ar    1  UNL1       -0.0461
     10 C          -0.4350   -0.2480   -1.1150 C.ar    1  UNL1        0.0361
     11 C          -1.2530   -1.3240   -1.5890 C.ar    1  UNL1        0.1641
     12 O          -2.2650   -1.1370   -2.5240 O.2     1  UNL1       -0.4418
     13 C          -2.7650   -2.3710   -2.7740 C.ar    1  UNL1        0.1831
     14 N          -2.2100   -3.3410   -2.0950 N.ar    1  UNL1       -0.2155
     15 C          -1.2750   -2.6950   -1.3180 C.ar    1  UNL1        0.1172
     16 C          -0.4640   -3.4270   -0.3630 C.ar    1  UNL1        0.0097
     17 C           0.1170   -4.6430   -0.7500 C.ar    1  UNL1       -0.0141
     18 C           0.8820   -5.3720    0.1580 C.ar    1  UNL1        0.1619
     19 F           1.4380   -6.5260   -0.2330 F       1  UNL1       -0.2024
     20 C           1.0690   -4.9120    1.4540 C.ar    1  UNL1        0.1934
     21 F           1.8080   -5.6170    2.3210 F       1  UNL1       -0.1995
     22 C           0.4810   -3.7180    1.8450 C.ar    1  UNL1        0.1619
     23 F           0.6440   -3.2650    3.0950 F       1  UNL1       -0.2024
     24 C          -0.2880   -2.9730    0.9510 C.ar    1  UNL1       -0.0141
     25 C          -1.0230    0.9580   -0.9500 C.ar    1  UNL1        0.0236
     26 N          -0.2770    2.0420   -0.4900 N.ar    1  UNL1       -0.2855
     27 H          -2.9140    2.6950    1.1290 H       1  UNL1        0.0236
     28 H          -3.8330    4.1520    0.7230 H       1  UNL1        0.0236
     29 H          -2.3640    4.2720    1.7080 H       1  UNL1        0.0236
     30 H          -2.5020    3.3990   -1.2320 H       1  UNL1        0.0374
     31 H          -1.3390    5.5370   -1.7240 H       1  UNL1        0.0236
     32 H          -2.9300    5.8010   -0.9940 H       1  UNL1        0.0236
     33 H          -1.4640    6.0100   -0.0230 H       1  UNL1        0.0236
     34 H           2.7760    0.6350   -0.1640 H       1  UNL1        0.0655
     35 H           1.5040   -1.2880   -1.0000 H       1  UNL1        0.0626
     36 H          -3.5630   -2.4340   -3.5000 H       1  UNL1        0.1255
     37 H          -0.0240   -5.0340   -1.7560 H       1  UNL1        0.0654
     38 H          -0.7500   -2.0560    1.3050 H       1  UNL1        0.0654
     39 H          -2.0730    1.1350   -1.1500 H       1  UNL1        0.0821
@<TRIPOS>BOND
     1     1     2    1
     2     1    27    1
     3     1    28    1
     4     1    29    1
     5     2     3    1
     6     2     4    1
     7     2    30    1
     8     3    31    1
     9     3    32    1
    10     3    33    1
    11     4     5   ar
    12     4    26   ar
    13     5     6   ar
    14     6     7   ar
    15     7     8   ar
    16     7    26   ar
    17     8     9   ar
    18     8    34    1
    19     9    10   ar
    20     9    35    1
    21    10    11    1
    22    10    25   ar
    23    11    12   ar
    24    11    15   ar
    25    12    13   ar
    26    13    14   ar
    27    13    36    1
    28    14    15   ar
    29    15    16    1
    30    16    17   ar
    31    16    24   ar
    32    17    18   ar
    33    17    37    1
    34    18    19    1
    35    18    20   ar
    36    20    21    1
    37    20    22   ar
    38    22    23    1
    39    22    24   ar
    40    24    38    1
    41    25    26   ar
    42    25    39    1
@<TRIPOS>MOLECULE
AD3CC00039385-I00-C00
 57 60 0 0 0
SMALL
GASTEIGER

@<TRIPOS>ATOM
      1 C           3.6980   -6.6380    0.9290 C.3     1  UNL1        0.0622
      2 O           4.4350   -5.4990    1.3640 O.3     1  UNL1       -0.2829
      3 N           3.9400   -4.3610    0.6770 N.am    1  UNL1       -0.1909
      4 C           4.7510   -3.9420   -0.3630 C.2     1  UNL1        0.2667
      5 O           5.6560   -4.6050   -0.8600 O.2     1  UNL1       -0.2681
      6 C           4.4890   -2.5620   -0.8620 C.ar    1  UNL1        0.0405
      7 C           5.5270   -1.8700   -1.4840 C.ar    1  UNL1       -0.0492
      8 C           5.3170   -0.5740   -1.9500 C.ar    1  UNL1       -0.0564
      9 C           4.0650    0.0490   -1.8020 C.ar    1  UNL1       -0.0292
     10 C           3.9070    1.4590   -2.3090 C.3     1  UNL1       -0.0380
     11 C           2.9950   -0.6510   -1.1940 C.ar    1  UNL1        0.0361
     12 N           1.7420   -0.0230   -1.0320 N.pl3   1  UNL1       -0.2975
     13 C           0.7440   -0.2770   -0.1120 C.ar    1  UNL1        0.1506
     14 N           0.9250   -1.0710    0.9040 N.ar    1  UNL1       -0.2167
     15 C          -0.0670   -1.2370    1.8330 C.ar    1  UNL1        0.1388
     16 N          -1.2250   -0.6620    1.8450 N.ar    1  UNL1       -0.1548
     17 N          -1.4310    0.1490    0.8010 N.ar    1  UNL1       -0.2342
     18 C          -2.5650    0.8770    0.5920 C.ar    1  UNL1        0.0423
     19 C          -2.4510    1.5550   -0.6110 C.ar    1  UNL1        0.0598
     20 C          -3.4430    2.4660   -1.1910 C.2     1  UNL1        0.2461
     21 O          -3.1700    3.2410   -2.1030 O.2     1  UNL1       -0.2701
     22 N          -4.7020    2.3800   -0.6480 N.am    1  UNL1       -0.3072
     23 C          -5.7950    3.1460   -1.1930 C.3     1  UNL1        0.0371
     24 C          -7.0300    2.9870   -0.3490 C.ar    1  UNL1       -0.0303
     25 C          -8.0100    2.0440   -0.6880 C.ar    1  UNL1       -0.0571
     26 C          -9.1400    1.8800    0.1140 C.ar    1  UNL1       -0.0615
     27 C          -9.2970    2.6490    1.2660 C.ar    1  UNL1       -0.0617
     28 C          -8.3230    3.5820    1.6180 C.ar    1  UNL1       -0.0615
     29 C          -7.1930    3.7480    0.8170 C.ar    1  UNL1       -0.0571
     30 C          -1.1600    1.1900   -1.1530 C.ar    1  UNL1       -0.0081
     31 C          -0.6220    1.6260   -2.4740 C.3     1  UNL1       -0.0368
     32 C          -0.5450    0.3680   -0.2110 C.ar    1  UNL1        0.1090
     33 C           3.2310   -1.9570   -0.7360 C.ar    1  UNL1       -0.0281
     34 H           3.8490   -6.8100   -0.1410 H       1  UNL1        0.0547
     35 H           4.0620   -7.5110    1.4770 H       1  UNL1        0.0547
     36 H           2.6330   -6.5090    1.1460 H       1  UNL1        0.0547
     37 H           3.5470   -3.6540    1.2900 H       1  UNL1        0.1828
     38 H           6.5040   -2.3360   -1.6040 H       1  UNL1        0.0625
     39 H           6.1430   -0.0500   -2.4270 H       1  UNL1        0.0621
     40 H           4.8550    1.8640   -2.6790 H       1  UNL1        0.0278
     41 H           3.5650    2.1170   -1.5040 H       1  UNL1        0.0278
     42 H           3.1900    1.4850   -3.1360 H       1  UNL1        0.0278
     43 H           1.6170    0.8030   -1.5950 H       1  UNL1        0.1536
     44 H           0.1680   -1.9310    2.6590 H       1  UNL1        0.1066
     45 H          -3.3500    0.8530    1.3350 H       1  UNL1        0.0838
     46 H          -4.9220    1.6150   -0.0270 H       1  UNL1        0.1493
     47 H          -5.5020    4.2010   -1.2550 H       1  UNL1        0.0512
     48 H          -5.9750    2.8060   -2.2200 H       1  UNL1        0.0512
     49 H          -7.9000    1.4330   -1.5820 H       1  UNL1        0.0621
     50 H          -9.8990    1.1510   -0.1580 H       1  UNL1        0.0618
     51 H         -10.1780    2.5210    1.8900 H       1  UNL1        0.0618
     52 H          -8.4440    4.1790    2.5190 H       1  UNL1        0.0618
     53 H          -6.4360    4.4750    1.1070 H       1  UNL1        0.0621
     54 H          -0.0580    0.8200   -2.9530 H       1  UNL1        0.0278
     55 H          -1.4200    1.8910   -3.1730 H       1  UNL1        0.0278
     56 H           0.0340    2.4930   -2.3500 H       1  UNL1        0.0278
     57 H           2.4090   -2.5280   -0.3160 H       1  UNL1        0.0644
@<TRIPOS>BOND
     1     1     2    1
     2     1    34    1
     3     1    35    1
     4     1    36    1
     5     2     3    1
     6     3     4   am
     7     3    37    1
     8     4     5    2
     9     4     6    1
    10     6     7   ar
    11     6    33   ar
    12     7     8   ar
    13     7    38    1
    14     8     9   ar
    15     8    39    1
    16     9    10    1
    17     9    11   ar
    18    10    40    1
    19    10    41    1
    20    10    42    1
    21    11    12    1
    22    11    33   ar
    23    12    13    1
    24    12    43    1
    25    13    14   ar
    26    13    32   ar
    27    14    15   ar
    28    15    16   ar
    29    15    44    1
    30    16    17   ar
    31    17    18   ar
    32    17    32   ar
    33    18    19   ar
    34    18    45    1
    35    19    20    1
    36    19    30   ar
    37    20    21    2
    38    20    22   am
    39    22    23    1
    40    22    46    1
    41    23    24    1
    42    23    47    1
    43    23    48    1
    44    24    25   ar
    45    24    29   ar
    46    25    26   ar
    47    25    49    1
    48    26    27   ar
    49    26    50    1
    50    27    28   ar
    51    27    51    1
    52    28    29   ar
    53    28    52    1
    54    29    53    1
    55    30    31    1
    56    30    32   ar
    57    31    54    1
    58    31    55    1
    59    31    56    1
    60    33    57    1
@<TRIPOS>MOLECULE
AD3CC00039465-I00-C00
 61 65 0 0 0
SMALL
GASTEIGER

@<TRIPOS>ATOM
      1 C          -0.3210    4.6590   -1.7680 C.3     1  UNL1       -0.0397
      2 C          -0.5230    3.1770   -1.8770 C.ar    1  UNL1       -0.0498
      3 C          -1.3910    2.6480   -2.8380 C.ar    1  UNL1       -0.0588
      4 C          -1.5480    1.2670   -2.9650 C.ar    1  UNL1       -0.0609
      5 C          -0.8380    0.4030   -2.1310 C.ar    1  UNL1       -0.0525
      6 C           0.0320    0.9120   -1.1590 C.ar    1  UNL1        0.0017
      7 C           0.7410   -0.0130   -0.2820 C.ar    1  UNL1        0.0866
      8 N           1.3670   -1.1270   -0.8210 N.ar    1  UNL1       -0.2384
      9 C           1.9460   -1.8450    0.1210 C.ar    1  UNL1        0.1095
     10 C           2.7070   -3.0850   -0.1510 C.ar    1  UNL1        0.0073
     11 C           3.2780   -3.8840    0.8550 C.ar    1  UNL1       -0.0503
     12 C           3.9900   -5.0480    0.5380 C.ar    1  UNL1       -0.0363
     13 C           4.1430   -5.4210   -0.7980 C.ar    1  UNL1        0.0879
     14 S           5.0320   -6.9040   -1.2050 S.O2    1  UNL1       -0.0059
     15 C           6.6770   -6.3180   -1.5180 C.3     1  UNL1        0.0596
     16 O           4.4870   -7.4120   -2.4490 O.2     1  UNL1       -0.1696
     17 O           5.0700   -7.7330   -0.0150 O.2     1  UNL1       -0.1696
     18 C           3.5720   -4.6590   -1.8160 C.ar    1  UNL1       -0.0363
     19 C           2.8650   -3.4980   -1.4880 C.ar    1  UNL1       -0.0503
     20 S           1.7510   -1.2130    1.7090 S.2     1  UNL1       -0.0666
     21 C           0.8200    0.0990    1.1000 C.ar    1  UNL1        0.0474
     22 C           0.2340    1.0710    2.0300 C.ar    1  UNL1       -0.0045
     23 C           1.0090    1.7280    2.9840 C.ar    1  UNL1       -0.0352
     24 C           0.3930    2.6630    3.7960 C.ar    1  UNL1        0.0303
     25 N          -0.9130    2.9950    3.7060 N.ar    1  UNL1       -0.2405
     26 C          -1.6550    2.3650    2.7790 C.ar    1  UNL1        0.1195
     27 N          -2.9940    2.7500    2.7070 N.pl3   1  UNL1       -0.3249
     28 C          -3.3850    3.2540    1.3950 C.3     1  UNL1        0.0357
     29 C          -4.7350    3.9240    1.5000 C.ar    1  UNL1       -0.0304
     30 C          -5.8920    3.1590    1.7110 C.ar    1  UNL1       -0.0571
     31 C          -7.1400    3.7730    1.8140 C.ar    1  UNL1       -0.0615
     32 C          -7.2460    5.1590    1.7110 C.ar    1  UNL1       -0.0617
     33 C          -6.1030    5.9310    1.5090 C.ar    1  UNL1       -0.0615
     34 C          -4.8530    5.3180    1.4060 C.ar    1  UNL1       -0.0571
     35 C          -1.1260    1.3870    1.9480 C.ar    1  UNL1       -0.0136
     36 C           0.2030    2.3010   -1.0560 C.ar    1  UNL1       -0.0496
     37 H          -1.2260    5.2000   -2.0640 H       1  UNL1        0.0278
     38 H           0.5060    4.9730   -2.4120 H       1  UNL1        0.0278
     39 H          -0.0960    4.9460   -0.7350 H       1  UNL1        0.0278
     40 H          -1.9470    3.3080   -3.5010 H       1  UNL1        0.0620
     41 H          -2.2200    0.8630   -3.7180 H       1  UNL1        0.0618
     42 H          -0.9660   -0.6720   -2.2390 H       1  UNL1        0.0624
     43 H           3.1760   -3.6280    1.9070 H       1  UNL1        0.0625
     44 H           4.4080   -5.6550    1.3390 H       1  UNL1        0.0637
     45 H           6.6530   -5.6160   -2.3540 H       1  UNL1        0.0468
     46 H           7.3000   -7.1780   -1.7750 H       1  UNL1        0.0468
     47 H           7.0620   -5.8370   -0.6170 H       1  UNL1        0.0468
     48 H           3.6590   -4.9580   -2.8580 H       1  UNL1        0.0637
     49 H           2.4230   -2.9100   -2.2930 H       1  UNL1        0.0625
     50 H           2.0700    1.5310    3.0970 H       1  UNL1        0.0639
     51 H           0.9520    3.1960    4.5590 H       1  UNL1        0.0830
     52 H          -3.0910    3.4750    3.4180 H       1  UNL1        0.1478
     53 H          -2.6470    3.9710    1.0130 H       1  UNL1        0.0511
     54 H          -3.4580    2.4390    0.6640 H       1  UNL1        0.0511
     55 H          -5.8170    2.0770    1.8070 H       1  UNL1        0.0621
     56 H          -8.0290    3.1710    1.9810 H       1  UNL1        0.0618
     57 H          -8.2180    5.6370    1.7940 H       1  UNL1        0.0618
     58 H          -6.1850    7.0130    1.4350 H       1  UNL1        0.0618
     59 H          -3.9710    5.9370    1.2560 H       1  UNL1        0.0621
     60 H          -1.7710    0.8760    1.2400 H       1  UNL1        0.0658
     61 H           0.9050    2.7110   -0.3330 H       1  UNL1        0.0627
@<TRIPOS>BOND
     1     1     2    1
     2     1    37    1
     3     1    38    1
     4     1    39    1
     5     2     3   ar
     6     2    36   ar
     7     3     4   ar
     8     3    40    1
     9     4     5   ar
    10     4    41    1
    11     5     6   ar
    12     5    42    1
    13     6     7    1
    14     6    36   ar
    15     7     8   ar
    16     7    21   ar
    17     8     9   ar
    18     9    10    1
    19     9    20   ar
    20    10    11   ar
    21    10    19   ar
    22    11    12   ar
    23    11    43    1
    24    12    13   ar
    25    12    44    1
    26    13    14    1
    27    13    18   ar
    28    14    15    1
    29    14    16    2
    30    14    17    2
    31    15    45    1
    32    15    46    1
    33    15    47    1
    34    18    19   ar
    35    18    48    1
    36    19    49    1
    37    20    21   ar
    38    21    22    1
    39    22    23   ar
    40    22    35   ar
    41    23    24   ar
    42    23    50    1
    43    24    25   ar
    44    24    51    1
    45    25    26   ar
    46    26    27    1
    47    26    35   ar
    48    27    28    1
    49    27    52    1
    50    28    29    1
    51    28    53    1
    52    28    54    1
    53    29    30   ar
    54    29    34   ar
    55    30    31   ar
    56    30    55    1
    57    31    32   ar
    58    31    56    1
    59    32    33   ar
    60    32    57    1
    61    33    34   ar
    62    33    58    1
    63    34    59    1
    64    35    60    1
    65    36    61    1
@<TRIPOS>MOLECULE
AD3CC00039910-I00-C00
 63 67 0 0 0
SMALL
GASTEIGER

@<TRIPOS>ATOM
      1 C           0.5440    3.5920    5.1760 C.3     1  UNL1       -0.0471
      2 C          -0.8290    3.2780    4.5440 C.3     1  UNL1        0.0138
      3 C          -1.6960    2.5430    5.5950 C.3     1  UNL1       -0.0471
      4 C          -1.5460    4.6210    4.2620 C.3     1  UNL1       -0.0471
      5 N          -0.7410    2.4410    3.3150 N.3     1  UNL1       -0.2935
      6 C          -0.2820    3.1610    2.1140 C.3     1  UNL1        0.0181
      7 C          -0.0630    2.2870    0.9060 C.2     1  UNL1       -0.0663
      8 C          -0.0440    0.9430    0.9560 C.2     1  UNL1       -0.0416
      9 C           0.1490    0.1190   -0.2530 C.ar    1  UNL1       -0.0195
     10 C           1.1550    0.4200   -1.1760 C.ar    1  UNL1       -0.0459
     11 C           1.3690   -0.3700   -2.3210 C.ar    1  UNL1       -0.0068
     12 C           2.4500    0.0260   -3.2430 C.ar    1  UNL1        0.0013
     13 C           2.1600    0.9240   -4.2890 C.ar    1  UNL1       -0.0499
     14 C           3.1560    1.3270   -5.1810 C.ar    1  UNL1       -0.0258
     15 C           4.4470    0.8390   -5.0310 C.ar    1  UNL1        0.1248
     16 F           5.4000    1.2270   -5.8880 F       1  UNL1       -0.2054
     17 C           4.7670   -0.0440   -4.0090 C.ar    1  UNL1       -0.0075
     18 C           3.7720   -0.4490   -3.1160 C.ar    1  UNL1        0.0514
     19 CL          4.2230   -1.5510   -1.8610 Cl      1  UNL1       -0.0828
     20 C           0.5430   -1.4990   -2.5400 C.ar    1  UNL1        0.0069
     21 C           0.7160   -2.3620   -3.7170 C.ar    1  UNL1       -0.0469
     22 C          -0.0680   -3.4240   -3.9180 C.ar    1  UNL1        0.0039
     23 C          -1.1440   -3.7890   -2.9730 C.ar    1  UNL1        0.2563
     24 O          -1.8290   -4.7810   -3.2190 O.2     1  UNL1       -0.2673
     25 N          -1.2950   -2.9680   -1.8630 N.ar    1  UNL1       -0.2741
     26 C          -2.3240   -3.2960   -0.9360 C.ar    1  UNL1        0.0866
     27 C          -2.0540   -4.1230    0.1700 C.ar    1  UNL1        0.0663
     28 CL         -0.4670   -4.7320    0.4900 Cl      1  UNL1       -0.0814
     29 C          -3.0760   -4.4710    1.0590 C.ar    1  UNL1       -0.0413
     30 C          -4.3750   -4.0080    0.8510 C.ar    1  UNL1       -0.0589
     31 C          -4.6570   -3.1980   -0.2490 C.ar    1  UNL1       -0.0413
     32 C          -3.6400   -2.8460   -1.1420 C.ar    1  UNL1        0.0663
     33 CL         -4.0560   -1.8240   -2.4750 Cl      1  UNL1       -0.0814
     34 C          -0.4750   -1.8210   -1.6160 C.ar    1  UNL1        0.0584
     35 C          -0.6560   -1.0030   -0.4850 C.ar    1  UNL1       -0.0297
     36 C          -0.2270    0.2460    2.2800 C.3     1  UNL1       -0.0145
     37 C           0.0220    1.1900    3.4700 C.3     1  UNL1        0.0037
     38 H           1.0590    2.6850    5.5110 H       1  UNL1        0.0247
     39 H           0.4290    4.2350    6.0560 H       1  UNL1        0.0247
     40 H           1.2030    4.1170    4.4770 H       1  UNL1        0.0247
     41 H          -2.6640    2.2470    5.1720 H       1  UNL1        0.0247
     42 H          -1.2090    1.6450    5.9880 H       1  UNL1        0.0247
     43 H          -1.9000    3.1880    6.4580 H       1  UNL1        0.0247
     44 H          -0.9470    5.2830    3.6270 H       1  UNL1        0.0247
     45 H          -2.5150    4.4600    3.7750 H       1  UNL1        0.0247
     46 H          -1.7370    5.1710    5.1920 H       1  UNL1        0.0247
     47 H          -1.0390    3.8970    1.8220 H       1  UNL1        0.0470
     48 H           0.6540    3.6990    2.3050 H       1  UNL1        0.0470
     49 H           0.0630    2.8130   -0.0360 H       1  UNL1        0.0588
     50 H           1.8040    1.2760   -0.9970 H       1  UNL1        0.0630
     51 H           1.1500    1.3100   -4.4130 H       1  UNL1        0.0625
     52 H           2.9310    2.0170   -5.9880 H       1  UNL1        0.0646
     53 H           5.7850   -0.4070   -3.9190 H       1  UNL1        0.0661
     54 H           1.4950   -2.1370   -4.4360 H       1  UNL1        0.0626
     55 H           0.0480   -4.0710   -4.7790 H       1  UNL1        0.0672
     56 H          -2.8650   -5.1090    1.9140 H       1  UNL1        0.0633
     57 H          -5.1690   -4.2840    1.5410 H       1  UNL1        0.0618
     58 H          -5.6730   -2.8450   -0.4080 H       1  UNL1        0.0633
     59 H          -1.4430   -1.2190    0.2310 H       1  UNL1        0.0644
     60 H           0.4660   -0.6000    2.3630 H       1  UNL1        0.0326
     61 H          -1.2470   -0.1530    2.3440 H       1  UNL1        0.0326
     62 H          -0.2720    0.6450    4.3720 H       1  UNL1        0.0430
     63 H           1.0970    1.3960    3.5550 H       1  UNL1        0.0430
@<TRIPOS>BOND
     1     2     1    1
     2     1    38    1
     3     1    39    1
     4     1    40    1
     5     2     3    1
     6     2     4    1
     7     2     5    1
     8     3    41    1
     9     3    42    1
    10     3    43    1
    11     4    44    1
    12     4    45    1
    13     4    46    1
    14     5     6    1
    15     5    37    1
    16     6     7    1
    17     6    47    1
    18     6    48    1
    19     7     8    2
    20     7    49    1
    21     8     9    1
    22     8    36    1
    23     9    10   ar
    24     9    35   ar
    25    10    11   ar
    26    10    50    1
    27    11    12    1
    28    11    20   ar
    29    12    13   ar
    30    12    18   ar
    31    13    14   ar
    32    13    51    1
    33    14    15   ar
    34    14    52    1
    35    15    16    1
    36    15    17   ar
    37    17    18   ar
    38    17    53    1
    39    18    19    1
    40    20    21   ar
    41    20    34   ar
    42    21    22   ar
    43    21    54    1
    44    22    23   ar
    45    22    55    1
    46    23    24    2
    47    23    25   ar
    48    25    26    1
    49    25    34   ar
    50    26    27   ar
    51    26    32   ar
    52    27    28    1
    53    27    29   ar
    54    29    30   ar
    55    29    56    1
    56    30    31   ar
    57    30    57    1
    58    31    32   ar
    59    31    58    1
    60    32    33    1
    61    34    35   ar
    62    35    59    1
    63    36    37    1
    64    36    60    1
    65    36    61    1
    66    37    62    1
    67    37    63    1
@<TRIPOS>MOLECULE
AD3CC00040574-I00-C00
 55 59 0 0 0
SMALL
GASTEIGER

@<TRIPOS>ATOM
      1 O           2.7640    2.8460    3.0230 O.2     1  UNL1       -0.2702
      2 C           1.9280    1.9980    3.3150 C.2     1  UNL1        0.2443
      3 N           1.3240    1.9210    4.5530 N.am    1  UNL1       -0.3083
      4 C           1.7260    2.7870    5.6530 C.3     1  UNL1        0.0276
      5 C           2.9830    2.2500    6.3430 C.3     1  UNL1       -0.0109
      6 C           3.3190    3.0990    7.5590 C.3     1  UNL1        0.0493
      7 O           2.2100    3.1520    8.4570 O.3     1  UNL1       -0.3796
      8 C           1.0630    3.7570    7.8620 C.3     1  UNL1        0.0493
      9 C           0.5910    2.9440    6.6660 C.3     1  UNL1       -0.0109
     10 C           1.4930    1.0000    2.3010 C.ar    1  UNL1        0.0367
     11 C           1.0730   -0.2860    2.6510 C.ar    1  UNL1       -0.0490
     12 C           0.6760   -1.1860    1.6550 C.ar    1  UNL1       -0.0519
     13 C           0.6970   -0.8390    0.2900 C.ar    1  UNL1        0.0004
     14 C           0.2730   -1.8130   -0.7400 C.ar    1  UNL1        0.0715
     15 C           0.8250   -1.8510   -2.0190 C.ar    1  UNL1       -0.0279
     16 C           0.3630   -2.7980   -2.9370 C.ar    1  UNL1       -0.0108
     17 C           0.9350   -2.8710   -4.2680 C.ar    1  UNL1        0.0288
     18 C           2.2760   -3.1090   -4.4790 C.ar    1  UNL1        0.0307
     19 N           2.4430   -3.1450   -5.8260 N.ar    1  UNL1       -0.2835
     20 N           1.3130   -2.9520   -6.5170 N.ar    1  UNL1       -0.1717
     21 C           0.3590   -2.7670   -5.5780 C.ar    1  UNL1        0.1183
     22 C          -1.0400   -2.4870   -5.9560 C.ar    1  UNL1        0.0915
     23 C          -1.4510   -2.5730   -7.2860 C.ar    1  UNL1       -0.0341
     24 C          -2.7780   -2.2910   -7.6060 C.ar    1  UNL1       -0.0583
     25 C          -3.6580   -1.9290   -6.5950 C.ar    1  UNL1       -0.0436
     26 C          -3.1730   -1.8650   -5.3010 C.ar    1  UNL1        0.0283
     27 N          -1.8940   -2.1360   -4.9620 N.ar    1  UNL1       -0.2534
     28 C          -0.6350   -3.6860   -2.5500 C.ar    1  UNL1       -0.0357
     29 C          -1.1270   -3.5890   -1.2630 C.ar    1  UNL1        0.0288
     30 N          -0.6920   -2.6880   -0.3550 N.ar    1  UNL1       -0.2549
     31 C           1.1310    0.4580   -0.0380 C.ar    1  UNL1       -0.0519
     32 C           1.5310    1.3640    0.9520 C.ar    1  UNL1       -0.0490
     33 H           0.6270    1.2120    4.7300 H       1  UNL1        0.1493
     34 H           1.9570    3.7750    5.2320 H       1  UNL1        0.0500
     35 H           2.8040    1.2150    6.6620 H       1  UNL1        0.0305
     36 H           3.8320    2.2310    5.6500 H       1  UNL1        0.0305
     37 H           3.6060    4.1170    7.2710 H       1  UNL1        0.0560
     38 H           4.1630    2.6580    8.0990 H       1  UNL1        0.0560
     39 H           1.3000    4.7900    7.5770 H       1  UNL1        0.0560
     40 H           0.2750    3.7960    8.6200 H       1  UNL1        0.0560
     41 H          -0.2780    3.4200    6.2000 H       1  UNL1        0.0305
     42 H           0.2720    1.9510    7.0090 H       1  UNL1        0.0305
     43 H           1.0720   -0.6210    3.6840 H       1  UNL1        0.0625
     44 H           0.3510   -2.1840    1.9490 H       1  UNL1        0.0624
     45 H           1.6100   -1.1590   -2.3060 H       1  UNL1        0.0645
     46 H           3.1040   -3.2650   -3.8020 H       1  UNL1        0.0830
     47 H           3.3000   -3.3030   -6.3460 H       1  UNL1        0.1882
     48 H          -0.7500   -2.8520   -8.0670 H       1  UNL1        0.0639
     49 H          -3.1150   -2.3520   -8.6370 H       1  UNL1        0.0619
     50 H          -4.6950   -1.7000   -6.8100 H       1  UNL1        0.0633
     51 H          -3.8190   -1.5830   -4.4740 H       1  UNL1        0.0830
     52 H          -1.0290   -4.4300   -3.2330 H       1  UNL1        0.0639
     53 H          -1.9100   -4.2560   -0.9140 H       1  UNL1        0.0830
     54 H           1.1470    0.7920   -1.0730 H       1  UNL1        0.0624
     55 H           1.8640    2.3600    0.6660 H       1  UNL1        0.0625
@<TRIPOS>BOND
     1     1     2    2
     2     2     3   am
     3     2    10    1
     4     3     4    1
     5     3    33    1
     6     4     5    1
     7     4     9    1
     8     4    34    1
     9     5     6    1
    10     5    35    1
    11     5    36    1
    12     6     7    1
    13     6    37    1
    14     6    38    1
    15     7     8    1
    16     8     9    1
    17     8    39    1
    18     8    40    1
    19     9    41    1
    20     9    42    1
    21    10    11   ar
    22    10    32   ar
    23    11    12   ar
    24    11    43    1
    25    12    13   ar
    26    12    44    1
    27    13    14    1
    28    13    31   ar
    29    14    15   ar
    30    14    30   ar
    31    15    16   ar
    32    15    45    1
    33    16    17    1
    34    16    28   ar
    35    17    18   ar
    36    17    21   ar
    37    18    19   ar
    38    18    46    1
    39    19    20   ar
    40    19    47    1
    41    20    21   ar
    42    21    22    1
    43    22    23   ar
    44    22    27   ar
    45    23    24   ar
    46    23    48    1
    47    24    25   ar
    48    24    49    1
    49    25    26   ar
    50    25    50    1
    51    26    27   ar
    52    26    51    1
    53    28    29   ar
    54    28    52    1
    55    29    30   ar
    56    29    53    1
    57    31    32   ar
    58    31    54    1
    59    32    55    1
@<TRIPOS>MOLECULE
AD3CC00040947-I00-C00
 56 58 0 0 0
SMALL
GASTEIGER

@<TRIPOS>ATOM
      1 C           4.9220    4.5610   -3.8490 C.3     1  UNL1       -0.0636
      2 C           5.2410    3.1740   -4.3920 C.3     1  UNL1       -0.0376
      3 C           4.0610    2.1870   -4.4030 C.3     1  UNL1        0.0204
      4 C           2.8650    2.7010   -5.2040 C.3     1  UNL1       -0.0466
      5 N           3.6600    1.8350   -3.0480 N.am    1  UNL1       -0.3087
      6 C           3.0430    0.6350   -2.7610 C.2     1  UNL1        0.2461
      7 O           2.8840   -0.2500   -3.5950 O.2     1  UNL1       -0.2701
      8 C           2.5720    0.4980   -1.3770 C.ar    1  UNL1        0.0598
      9 C           2.9770    1.2610   -0.2940 C.ar    1  UNL1        0.0423
     10 N           2.3370    0.8180    0.8250 N.ar    1  UNL1       -0.2342
     11 N           2.4580    1.3630    2.0410 N.ar    1  UNL1       -0.1548
     12 C           1.7630    0.7600    2.9500 C.ar    1  UNL1        0.1388
     13 N           0.9750   -0.3480    2.7840 N.ar    1  UNL1       -0.2167
     14 C           0.8550   -0.8960    1.6080 C.ar    1  UNL1        0.1506
     15 N           0.1320   -2.0550    1.4100 N.pl3   1  UNL1       -0.2975
     16 C          -0.7270   -2.7410    2.2940 C.ar    1  UNL1        0.0361
     17 C          -1.3510   -2.0900    3.3700 C.ar    1  UNL1       -0.0281
     18 C          -2.1710   -2.7840    4.2710 C.ar    1  UNL1        0.0405
     19 C          -2.8240   -2.1030    5.4250 C.2     1  UNL1        0.2667
     20 O          -3.8480   -2.5750    5.9080 O.2     1  UNL1       -0.2681
     21 N          -2.1760   -0.9720    5.8900 N.am    1  UNL1       -0.1909
     22 O          -2.5950   -0.5640    7.1820 O.3     1  UNL1       -0.2829
     23 C          -3.4740    0.5480    7.0370 C.3     1  UNL1        0.0622
     24 C          -2.4040   -4.1460    4.0820 C.ar    1  UNL1       -0.0492
     25 C          -1.7990   -4.8130    3.0190 C.ar    1  UNL1       -0.0564
     26 C          -0.9530   -4.1290    2.1290 C.ar    1  UNL1       -0.0292
     27 C          -0.3130   -4.9110    1.0110 C.3     1  UNL1       -0.0380
     28 C           1.5550   -0.2550    0.5190 C.ar    1  UNL1        0.1090
     29 C           1.6180   -0.4560   -0.8580 C.ar    1  UNL1       -0.0081
     30 C           0.8600   -1.4510   -1.6720 C.3     1  UNL1       -0.0368
     31 H           4.1780    5.0720   -4.4660 H       1  UNL1        0.0230
     32 H           5.8280    5.1760   -3.8490 H       1  UNL1        0.0230
     33 H           4.5510    4.5170   -2.8210 H       1  UNL1        0.0230
     34 H           5.6210    3.2830   -5.4150 H       1  UNL1        0.0280
     35 H           6.0590    2.7470   -3.7970 H       1  UNL1        0.0280
     36 H           4.4130    1.2670   -4.8870 H       1  UNL1        0.0495
     37 H           2.1030    1.9200   -5.3080 H       1  UNL1        0.0247
     38 H           2.3840    3.5530   -4.7130 H       1  UNL1        0.0247
     39 H           3.1700    3.0060   -6.2100 H       1  UNL1        0.0247
     40 H           3.5630    2.5790   -2.3720 H       1  UNL1        0.1493
     41 H           3.6800    2.0770   -0.2100 H       1  UNL1        0.0838
     42 H           1.8050    1.1620    3.9770 H       1  UNL1        0.1066
     43 H           0.3320   -2.5530    0.5560 H       1  UNL1        0.1536
     44 H          -1.2330   -1.0170    3.4810 H       1  UNL1        0.0644
     45 H          -1.1740   -0.9030    5.7460 H       1  UNL1        0.1828
     46 H          -4.3690    0.2610    6.4760 H       1  UNL1        0.0547
     47 H          -3.7770    0.8780    8.0340 H       1  UNL1        0.0547
     48 H          -2.9620    1.3750    6.5350 H       1  UNL1        0.0547
     49 H          -3.0530   -4.6920    4.7650 H       1  UNL1        0.0625
     50 H          -1.9880   -5.8780    2.8950 H       1  UNL1        0.0621
     51 H           0.7770   -4.8080    1.0490 H       1  UNL1        0.0278
     52 H          -0.5410   -5.9800    1.0840 H       1  UNL1        0.0278
     53 H          -0.6820   -4.5580    0.0430 H       1  UNL1        0.0278
     54 H           0.7640   -1.1370   -2.7150 H       1  UNL1        0.0278
     55 H           1.3600   -2.4240   -1.6460 H       1  UNL1        0.0278
     56 H          -0.1610   -1.5670   -1.2970 H       1  UNL1        0.0278
@<TRIPOS>BOND
     1     1     2    1
     2     1    31    1
     3     1    32    1
     4     1    33    1
     5     2     3    1
     6     2    34    1
     7     2    35    1
     8     3     4    1
     9     3     5    1
    10     3    36    1
    11     4    37    1
    12     4    38    1
    13     4    39    1
    14     5     6   am
    15     5    40    1
    16     6     7    2
    17     6     8    1
    18     8     9   ar
    19     8    29   ar
    20     9    10   ar
    21     9    41    1
    22    10    11   ar
    23    10    28   ar
    24    11    12   ar
    25    12    13   ar
    26    12    42    1
    27    13    14   ar
    28    14    15    1
    29    14    28   ar
    30    15    16    1
    31    15    43    1
    32    16    17   ar
    33    16    26   ar
    34    17    18   ar
    35    17    44    1
    36    18    19    1
    37    18    24   ar
    38    19    20    2
    39    19    21   am
    40    21    22    1
    41    21    45    1
    42    22    23    1
    43    23    46    1
    44    23    47    1
    45    23    48    1
    46    24    25   ar
    47    24    49    1
    48    25    26   ar
    49    25    50    1
    50    26    27    1
    51    27    51    1
    52    27    52    1
    53    27    53    1
    54    28    29   ar
    55    29    30    1
    56    30    54    1
    57    30    55    1
    58    30    56    1
@<TRIPOS>MOLECULE
AD3CC00041321-I00-C00
 42 45 0 0 0
SMALL
GASTEIGER

@<TRIPOS>ATOM
      1 C          -2.2880    0.7140   -3.5160 C.3     1  UNL1       -0.0531
      2 C          -1.1050    1.6950   -3.5910 C.3     1  UNL1        0.0225
      3 C          -1.1480    2.3560   -4.9910 C.3     1  UNL1       -0.0531
      4 C          -1.2640    2.8200   -2.5540 C.3     1  UNL1       -0.0531
      5 C           0.2180    0.9730   -3.4180 C.ar    1  UNL1        0.1432
      6 N           1.1730    0.9300   -4.3330 N.ar    1  UNL1       -0.1331
      7 N           2.2260    0.2000   -3.8510 N.ar    1  UNL1       -0.1294
      8 C           1.9110   -0.2000   -2.6430 C.ar    1  UNL1        0.1611
      9 C           2.6110   -0.9830   -1.6900 C.ar    1  UNL1       -0.0163
     10 C           2.0400   -1.2500   -0.5010 C.ar    1  UNL1       -0.0461
     11 C           0.7080   -0.7480   -0.1450 C.ar    1  UNL1        0.0361
     12 C           0.0430   -0.9920    1.0990 C.ar    1  UNL1        0.1642
     13 O          -1.3180   -1.2610    1.1810 O.2     1  UNL1       -0.4418
     14 C          -1.5630   -1.5060    2.4910 C.ar    1  UNL1        0.1831
     15 N          -0.5220   -1.4140    3.2780 N.ar    1  UNL1       -0.2154
     16 C           0.4930   -1.0490    2.4210 C.ar    1  UNL1        0.1197
     17 C           1.8340   -0.7920    2.9090 C.ar    1  UNL1        0.0394
     18 C           2.4240   -1.6970    3.8040 C.ar    1  UNL1       -0.0470
     19 C           3.7110   -1.4640    4.2940 C.ar    1  UNL1       -0.0257
     20 C           4.4020   -0.3230    3.8980 C.ar    1  UNL1        0.1262
     21 F           5.6350   -0.1040    4.3690 F       1  UNL1       -0.2054
     22 C           3.8300    0.5940    3.0280 C.ar    1  UNL1        0.0095
     23 C           2.5470    0.3580    2.5450 C.ar    1  UNL1        0.1354
     24 F           2.0000    1.2700    1.7260 F       1  UNL1       -0.2047
     25 C           0.0500   -0.0190   -1.0730 C.ar    1  UNL1        0.0236
     26 N           0.6430    0.2580   -2.3060 N.ar    1  UNL1       -0.2853
     27 H          -2.3940    0.2590   -2.5280 H       1  UNL1        0.0239
     28 H          -3.2340    1.2210   -3.7360 H       1  UNL1        0.0239
     29 H          -2.1710   -0.1020   -4.2390 H       1  UNL1        0.0239
     30 H          -1.0500    1.6090   -5.7890 H       1  UNL1        0.0239
     31 H          -0.3350    3.0810   -5.1170 H       1  UNL1        0.0239
     32 H          -2.0930    2.8880   -5.1520 H       1  UNL1        0.0239
     33 H          -2.1750    3.4010   -2.7400 H       1  UNL1        0.0239
     34 H          -1.3330    2.4420   -1.5310 H       1  UNL1        0.0239
     35 H          -0.4150    3.5130   -2.5880 H       1  UNL1        0.0239
     36 H           3.5930   -1.3610   -1.9500 H       1  UNL1        0.0655
     37 H           2.5660   -1.8700    0.2190 H       1  UNL1        0.0626
     38 H          -2.5820   -1.7530    2.7560 H       1  UNL1        0.1255
     39 H           1.8790   -2.5840    4.1260 H       1  UNL1        0.0626
     40 H           4.1760   -2.1610    4.9850 H       1  UNL1        0.0646
     41 H           4.3710    1.4870    2.7360 H       1  UNL1        0.0675
     42 H          -0.9380    0.3810   -0.8930 H       1  UNL1        0.0821
@<TRIPOS>BOND
     1     2     1    1
     2     1    27    1
     3     1    28    1
     4     1    29    1
     5     2     3    1
     6     2     4    1
     7     2     5    1
     8     3    30    1
     9     3    31    1
    10     3    32    1
    11     4    33    1
    12     4    34    1
    13     4    35    1
    14     5     6   ar
    15     5    26   ar
    16     6     7   ar
    17     7     8   ar
    18     8     9   ar
    19     8    26   ar
    20     9    10   ar
    21     9    36    1
    22    10    11   ar
    23    10    37    1
    24    11    12    1
    25    11    25   ar
    26    12    13   ar
    27    12    16   ar
    28    13    14   ar
    29    14    15   ar
    30    14    38    1
    31    15    16   ar
    32    16    17    1
    33    17    18   ar
    34    17    23   ar
    35    18    19   ar
    36    18    39    1
    37    19    20   ar
    38    19    40    1
    39    20    21    1
    40    20    22   ar
    41    22    23   ar
    42    22    41    1
    43    23    24    1
    44    25    26   ar
    45    25    42    1
@<TRIPOS>MOLECULE
AD3CC00042162-I00-C00
 53 56 0 0 0
SMALL
GASTEIGER

@<TRIPOS>ATOM
      1 C           3.5720   -0.9620   -4.7400 C.3     1  UNL1       -0.0593
      2 C           2.6220   -2.1380   -4.5810 C.3     1  UNL1       -0.0068
      3 C           1.5590   -1.8510   -3.5680 C.ar    1  UNL1        0.0793
      4 N           0.4380   -1.2230   -3.8390 N.ar    1  UNL1       -0.2434
      5 C          -0.3230   -1.0830   -2.6860 C.ar    1  UNL1        0.0862
      6 C          -1.6070   -0.3930   -2.7480 C.ar    1  UNL1        0.0017
      7 C          -2.4780   -0.6610   -3.8110 C.ar    1  UNL1       -0.0525
      8 C          -3.7120   -0.0170   -3.8950 C.ar    1  UNL1       -0.0609
      9 C          -4.0860    0.9070   -2.9190 C.ar    1  UNL1       -0.0588
     10 C          -3.2300    1.1930   -1.8500 C.ar    1  UNL1       -0.0498
     11 C          -3.6080    2.2210   -0.8250 C.3     1  UNL1       -0.0397
     12 C          -1.9830    0.5540   -1.7830 C.ar    1  UNL1       -0.0496
     13 C           0.2180   -1.6650   -1.5460 C.ar    1  UNL1        0.0471
     14 C          -0.3040   -1.8130   -0.1840 C.ar    1  UNL1       -0.0045
     15 C          -1.5300   -2.4410    0.0300 C.ar    1  UNL1       -0.0352
     16 C          -1.9940   -2.5450    1.3270 C.ar    1  UNL1        0.0303
     17 N          -1.3270   -2.0730    2.4010 N.ar    1  UNL1       -0.2401
     18 C          -0.1430   -1.4620    2.1850 C.ar    1  UNL1        0.1254
     19 N           0.4580   -1.0070    3.3580 N.am    1  UNL1       -0.2701
     20 C           1.6350   -0.3110    3.5060 C.2     1  UNL1        0.2226
     21 O           2.3900    0.0320    2.5990 O.2     1  UNL1       -0.2751
     22 C           1.9880   -0.0220    4.9590 C.3     1  UNL1        0.0495
     23 C           0.9180    0.7370    5.7070 C.ar    1  UNL1       -0.0386
     24 C           0.5600    2.0330    5.3080 C.ar    1  UNL1       -0.0581
     25 C          -0.4350    2.7330    5.9920 C.ar    1  UNL1       -0.0615
     26 C          -1.0770    2.1470    7.0810 C.ar    1  UNL1       -0.0617
     27 C          -0.7240    0.8630    7.4900 C.ar    1  UNL1       -0.0615
     28 C           0.2710    0.1600    6.8080 C.ar    1  UNL1       -0.0581
     29 C           0.4010   -1.3150    0.9180 C.ar    1  UNL1       -0.0132
     30 S           1.7500   -2.3500   -1.9380 S.2     1  UNL1       -0.0715
     31 H           3.0350   -0.0580   -5.0490 H       1  UNL1        0.0233
     32 H           4.0910   -0.7390   -3.8010 H       1  UNL1        0.0233
     33 H           4.3280   -1.1840   -5.5000 H       1  UNL1        0.0233
     34 H           2.1450   -2.3490   -5.5450 H       1  UNL1        0.0331
     35 H           3.1890   -3.0360   -4.3090 H       1  UNL1        0.0331
     36 H          -2.1910   -1.3730   -4.5830 H       1  UNL1        0.0624
     37 H          -4.3780   -0.2290   -4.7270 H       1  UNL1        0.0618
     38 H          -5.0480    1.4090   -3.0030 H       1  UNL1        0.0620
     39 H          -3.2420    3.2060   -1.1310 H       1  UNL1        0.0278
     40 H          -4.6950    2.2700   -0.7030 H       1  UNL1        0.0278
     41 H          -3.1820    1.9710    0.1520 H       1  UNL1        0.0278
     42 H          -1.3000    0.8100   -0.9760 H       1  UNL1        0.0627
     43 H          -2.1160   -2.8410   -0.7910 H       1  UNL1        0.0639
     44 H          -2.9440   -3.0240    1.5440 H       1  UNL1        0.0830
     45 H          -0.1130   -1.1870    4.1730 H       1  UNL1        0.1562
     46 H           2.2040   -0.9810    5.4470 H       1  UNL1        0.0407
     47 H           2.9160    0.5600    4.9870 H       1  UNL1        0.0407
     48 H           1.0530    2.5050    4.4610 H       1  UNL1        0.0620
     49 H          -0.7080    3.7360    5.6750 H       1  UNL1        0.0618
     50 H          -1.8510    2.6940    7.6140 H       1  UNL1        0.0618
     51 H          -1.2220    0.4100    8.3430 H       1  UNL1        0.0618
     52 H           0.5350   -0.8390    7.1470 H       1  UNL1        0.0620
     53 H           1.3500   -0.8160    0.7640 H       1  UNL1        0.0658
@<TRIPOS>BOND
     1     1     2    1
     2     1    31    1
     3     1    32    1
     4     1    33    1
     5     2     3    1
     6     2    34    1
     7     2    35    1
     8     3     4   ar
     9     3    30   ar
    10     4     5   ar
    11     5     6    1
    12     5    13   ar
    13     6     7   ar
    14     6    12   ar
    15     7     8   ar
    16     7    36    1
    17     8     9   ar
    18     8    37    1
    19     9    10   ar
    20     9    38    1
    21    10    11    1
    22    10    12   ar
    23    11    39    1
    24    11    40    1
    25    11    41    1
    26    12    42    1
    27    13    14    1
    28    13    30   ar
    29    14    15   ar
    30    14    29   ar
    31    15    16   ar
    32    15    43    1
    33    16    17   ar
    34    16    44    1
    35    17    18   ar
    36    18    19    1
    37    18    29   ar
    38    19    20   am
    39    19    45    1
    40    20    21    2
    41    20    22    1
    42    22    23    1
    43    22    46    1
    44    22    47    1
    45    23    24   ar
    46    23    28   ar
    47    24    25   ar
    48    24    48    1
    49    25    26   ar
    50    25    49    1
    51    26    27   ar
    52    26    50    1
    53    27    28   ar
    54    27    51    1
    55    28    52    1
    56    29    53    1
@<TRIPOS>MOLECULE
AD3CC00044802-I00-C01
 42 44 0 0 0
SMALL
GASTEIGER

@<TRIPOS>ATOM
      1 C          -2.7880    4.9100    1.7730 C.3     1  UNL1       -0.0107
      2 S          -1.2900    4.7400    0.7770 S.3     1  UNL1       -0.0911
      3 C          -1.2290    3.0180    0.5860 C.ar    1  UNL1        0.1695
      4 N          -2.1370    2.1830    1.0260 N.ar    1  UNL1       -0.2212
      5 C          -1.6660    0.9310    0.7100 C.ar    1  UNL1        0.0978
      6 C          -2.4080   -0.2690    1.0640 C.ar    1  UNL1        0.0026
      7 C          -3.8060   -0.2690    0.9350 C.ar    1  UNL1       -0.0498
      8 C          -4.5490   -1.4040    1.2690 C.ar    1  UNL1       -0.0258
      9 C          -3.8940   -2.5340    1.7410 C.ar    1  UNL1        0.1234
     10 F          -4.6050   -3.6230    2.0610 F       1  UNL1       -0.2055
     11 C          -2.5130   -2.5500    1.8930 C.ar    1  UNL1       -0.0258
     12 C          -1.7690   -1.4150    1.5600 C.ar    1  UNL1       -0.0498
     13 C          -0.4590    1.0060    0.0220 C.ar    1  UNL1        0.0772
     14 C           0.3880   -0.0330   -0.5620 C.ar    1  UNL1        0.0053
     15 C          -0.1200   -0.8850   -1.5390 C.ar    1  UNL1       -0.0343
     16 C           0.7130   -1.8630   -2.0480 C.ar    1  UNL1        0.0303
     17 N           1.9940   -2.0360   -1.6570 N.ar    1  UNL1       -0.2401
     18 C           2.4780   -1.2000   -0.7130 C.ar    1  UNL1        0.1255
     19 N           3.8090   -1.4560   -0.3850 N.am    1  UNL1       -0.2706
     20 C           4.6270   -0.7490    0.4620 C.2     1  UNL1        0.2152
     21 C           6.0100   -1.3400    0.5690 C.3     1  UNL1        0.0125
     22 O           4.3340    0.2760    1.0690 O.2     1  UNL1       -0.2757
     23 C           1.7100   -0.2000   -0.1370 C.ar    1  UNL1       -0.0123
     24 N          -0.2050    2.3690   -0.0560 N.ar    1  UNL1       -0.3213
     25 C           0.9180    2.9950   -0.7180 C.3     1  UNL1        0.0143
     26 H          -2.9570    5.9680    1.9880 H       1  UNL1        0.0345
     27 H          -2.6840    4.3780    2.7230 H       1  UNL1        0.0345
     28 H          -3.6580    4.5250    1.2330 H       1  UNL1        0.0345
     29 H          -4.3180    0.6210    0.5750 H       1  UNL1        0.0625
     30 H          -5.6290   -1.4080    1.1680 H       1  UNL1        0.0646
     31 H          -2.0230   -3.4390    2.2770 H       1  UNL1        0.0646
     32 H          -0.6920   -1.4310    1.7080 H       1  UNL1        0.0625
     33 H          -1.1410   -0.7970   -1.8950 H       1  UNL1        0.0639
     34 H           0.3620   -2.5560   -2.8080 H       1  UNL1        0.0830
     35 H           4.1820   -2.2430   -0.9000 H       1  UNL1        0.1562
     36 H           6.6800   -0.8110   -0.1140 H       1  UNL1        0.0323
     37 H           6.0120   -2.4060    0.3240 H       1  UNL1        0.0323
     38 H           6.3690   -1.2290    1.5960 H       1  UNL1        0.0323
     39 H           2.1050    0.4430    0.6410 H       1  UNL1        0.0658
     40 H           0.5830    3.8980   -1.2350 H       1  UNL1        0.0456
     41 H           1.3380    2.3200   -1.4670 H       1  UNL1        0.0456
     42 H           1.6680    3.2370    0.0380 H       1  UNL1        0.0456
@<TRIPOS>BOND
     1     1     2    1
     2     1    26    1
     3     1    27    1
     4     1    28    1
     5     2     3    1
     6     3     4   ar
     7     3    24   ar
     8     4     5   ar
     9     5     6    1
    10     5    13   ar
    11     6     7   ar
    12     6    12   ar
    13     7     8   ar
    14     7    29    1
    15     8     9   ar
    16     8    30    1
    17     9    10    1
    18     9    11   ar
    19    11    12   ar
    20    11    31    1
    21    12    32    1
    22    13    14    1
    23    13    24   ar
    24    14    15   ar
    25    14    23   ar
    26    15    16   ar
    27    15    33    1
    28    16    17   ar
    29    16    34    1
    30    17    18   ar
    31    18    19    1
    32    18    23   ar
    33    19    20   am
    34    19    35    1
    35    20    21    1
    36    20    22    2
    37    21    36    1
    38    21    37    1
    39    21    38    1
    40    23    39    1
    41    24    25    1
    42    25    40    1
    43    25    41    1
    44    25    42    1
@<TRIPOS>MOLECULE
AD3CC00053571-I00-C00
 64 70 0 0 0
SMALL
GASTEIGER

@<TRIPOS>ATOM
      1 C           9.4050    1.3290   -0.0030 C.3     1  UNL1       -0.0126
      2 N           8.3020    0.4560    0.3910 N.3     1  UNL1       -0.3024
      3 C           7.2460    0.4480   -0.6460 C.3     1  UNL1        0.0144
      4 C           6.0220   -0.4150   -0.2560 C.3     1  UNL1        0.0250
      5 N           5.4730    0.0160    1.0540 N.pl3   1  UNL1       -0.3275
      6 C           4.2310   -0.5590    1.3620 C.ar    1  UNL1        0.0299
      7 C           3.1290   -0.3170    0.5290 C.ar    1  UNL1       -0.0389
      8 C           1.8620   -0.8560    0.7960 C.ar    1  UNL1       -0.0387
      9 C           1.6440   -1.6690    1.9060 C.ar    1  UNL1        0.0337
     10 N           0.3960   -2.1970    2.2520 N.pl3   1  UNL1       -0.2836
     11 C          -0.8900   -1.9760    1.7750 C.ar    1  UNL1        0.2214
     12 N          -1.7870   -2.9300    2.0800 N.ar    1  UNL1       -0.2218
     13 C          -3.0550   -2.7680    1.6400 C.ar    1  UNL1        0.0471
     14 C          -3.4660   -1.6720    0.9250 C.ar    1  UNL1        0.1009
     15 C          -4.8510   -1.5280    0.4470 C.ar    1  UNL1        0.2707
     16 O          -5.6520   -2.4270    0.6880 O.2     1  UNL1       -0.2664
     17 N          -5.1420   -0.3830   -0.2800 N.ar    1  UNL1       -0.2431
     18 C          -6.4480   -0.1100   -0.7580 C.ar    1  UNL1        0.0894
     19 C          -7.4820    0.2270    0.1350 C.ar    1  UNL1        0.0677
     20 CL         -7.2030    0.3990    1.8360 Cl      1  UNL1       -0.0813
     21 C          -8.7710    0.4890   -0.3350 C.ar    1  UNL1       -0.0229
     22 C          -9.0360    0.4150   -1.7000 C.ar    1  UNL1        0.0439
     23 CL        -10.6240    0.7390   -2.2770 Cl      1  UNL1       -0.0834
     24 C          -8.0310    0.0780   -2.6010 C.ar    1  UNL1       -0.0229
     25 C          -6.7410   -0.1870   -2.1330 C.ar    1  UNL1        0.0677
     26 CL         -5.5570   -0.6810   -3.2970 Cl      1  UNL1       -0.0813
     27 C          -4.1800    0.5930   -0.4850 C.ar    1  UNL1        0.2252
     28 N          -4.3250    1.7450   -1.1020 N.ar    1  UNL1       -0.2113
     29 C          -3.1020    2.3580   -1.0180 C.ar    1  UNL1        0.0915
     30 C          -2.7090    3.6110   -1.5120 C.ar    1  UNL1       -0.0342
     31 C          -1.3990    4.0480   -1.2840 C.ar    1  UNL1       -0.0596
     32 C          -0.5000    3.2560   -0.5720 C.ar    1  UNL1       -0.0597
     33 C          -0.8730    2.0020   -0.0740 C.ar    1  UNL1       -0.0356
     34 C          -2.1840    1.5700   -0.3230 C.ar    1  UNL1        0.0767
     35 N          -2.8950    0.4310   -0.0060 N.ar    1  UNL1       -0.2612
     36 C          -2.4940   -0.7270    0.6900 C.ar    1  UNL1        0.1582
     37 N          -1.2100   -0.8630    1.0940 N.ar    1  UNL1       -0.1956
     38 C           2.7310   -1.8950    2.7570 C.ar    1  UNL1       -0.0387
     39 C           3.9970   -1.3510    2.4910 C.ar    1  UNL1       -0.0389
     40 C           6.5100    0.0360    2.1070 C.3     1  UNL1        0.0250
     41 C           7.7120    0.9070    1.6710 C.3     1  UNL1        0.0144
     42 H           9.8560    0.9770   -0.9380 H       1  UNL1        0.0391
     43 H           9.0850    2.3670   -0.1440 H       1  UNL1        0.0391
     44 H          10.1960    1.3120    0.7540 H       1  UNL1        0.0391
     45 H           6.9050    1.4720   -0.8460 H       1  UNL1        0.0442
     46 H           7.6590    0.0510   -1.5820 H       1  UNL1        0.0442
     47 H           5.2820   -0.3190   -1.0580 H       1  UNL1        0.0476
     48 H           6.3180   -1.4720   -0.2020 H       1  UNL1        0.0476
     49 H           3.2390    0.3290   -0.3390 H       1  UNL1        0.0637
     50 H           1.0590   -0.6380    0.0990 H       1  UNL1        0.0637
     51 H           0.4110   -3.0450    2.8010 H       1  UNL1        0.1550
     52 H          -3.7380   -3.5750    1.8940 H       1  UNL1        0.0839
     53 H          -9.5630    0.7590    0.3600 H       1  UNL1        0.0647
     54 H          -8.2510    0.0120   -3.6640 H       1  UNL1        0.0647
     55 H          -3.4160    4.2280   -2.0560 H       1  UNL1        0.0639
     56 H          -1.0850    5.0190   -1.6590 H       1  UNL1        0.0618
     57 H           0.5110    3.6180   -0.3940 H       1  UNL1        0.0618
     58 H          -0.1680    1.4050    0.4930 H       1  UNL1        0.0639
     59 H           2.6060   -2.4970    3.6540 H       1  UNL1        0.0637
     60 H           4.7950   -1.5780    3.1920 H       1  UNL1        0.0637
     61 H           6.8630   -0.9820    2.3180 H       1  UNL1        0.0476
     62 H           6.1030    0.4620    3.0330 H       1  UNL1        0.0476
     63 H           7.3830    1.9520    1.5910 H       1  UNL1        0.0442
     64 H           8.4720    0.8600    2.4600 H       1  UNL1        0.0442
@<TRIPOS>BOND
     1     1     2    1
     2     1    42    1
     3     1    43    1
     4     1    44    1
     5     2     3    1
     6     2    41    1
     7     3     4    1
     8     3    45    1
     9     3    46    1
    10     4     5    1
    11     4    47    1
    12     4    48    1
    13     5     6    1
    14     5    40    1
    15     6     7   ar
    16     6    39   ar
    17     7     8   ar
    18     7    49    1
    19     8     9   ar
    20     8    50    1
    21     9    10    1
    22     9    38   ar
    23    10    11    1
    24    10    51    1
    25    11    12   ar
    26    11    37   ar
    27    12    13   ar
    28    13    14   ar
    29    13    52    1
    30    14    15   ar
    31    14    36   ar
    32    15    16    2
    33    15    17   ar
    34    17    18    1
    35    17    27   ar
    36    18    19   ar
    37    18    25   ar
    38    19    20    1
    39    19    21   ar
    40    21    22   ar
    41    21    53    1
    42    22    23    1
    43    22    24   ar
    44    24    25   ar
    45    24    54    1
    46    25    26    1
    47    27    28   ar
    48    27    35   ar
    49    28    29   ar
    50    29    30   ar
    51    29    34   ar
    52    30    31   ar
    53    30    55    1
    54    31    32   ar
    55    31    56    1
    56    32    33   ar
    57    32    57    1
    58    33    34   ar
    59    33    58    1
    60    34    35   ar
    61    35    36   ar
    62    36    37   ar
    63    38    39   ar
    64    38    59    1
    65    39    60    1
    66    40    41    1
    67    40    61    1
    68    40    62    1
    69    41    63    1
    70    41    64    1
@<TRIPOS>MOLECULE
AD3CC00054203-I00-C00
 44 45 0 0 0
SMALL
GASTEIGER

@<TRIPOS>ATOM
      1 C           3.9840    4.1450    3.4950 C.3     1  UNL1        0.0004
      2 N           2.7980    3.5050    2.9860 N.am    1  UNL1       -0.3144
      3 C           1.6150    3.5440    3.6960 C.2     1  UNL1        0.2439
      4 O           1.5120    4.0620    4.8030 O.2     1  UNL1       -0.2702
      5 C           0.4160    2.9510    3.0360 C.ar    1  UNL1        0.0385
      6 C          -0.8450    3.3850    3.4470 C.ar    1  UNL1       -0.0493
      7 C          -1.9910    2.8520    2.8600 C.ar    1  UNL1       -0.0564
      8 C          -1.8970    1.8760    1.8540 C.ar    1  UNL1       -0.0292
      9 C          -3.1750    1.3460    1.2580 C.3     1  UNL1       -0.0380
     10 C          -0.6230    1.4270    1.4380 C.ar    1  UNL1        0.0373
     11 N          -0.5500    0.4390    0.4280 N.am    1  UNL1       -0.2808
     12 C           0.5720   -0.0630   -0.2150 C.2     1  UNL1        0.2565
     13 O           1.7190    0.3240   -0.0130 O.2     1  UNL1       -0.2692
     14 C           0.2940   -1.1000   -1.1940 C.ar    1  UNL1        0.0953
     15 C           1.2040   -1.7470   -2.0040 C.ar    1  UNL1        0.0490
     16 N           0.6820   -2.7010   -2.8550 N.ar    1  UNL1       -0.2325
     17 C          -0.6190   -2.7790   -2.7020 C.ar    1  UNL1        0.1588
     18 N          -1.4360   -3.6140   -3.3820 N.pl3   1  UNL1       -0.3213
     19 C          -0.8530   -4.7710   -4.0560 C.3     1  UNL1        0.0343
     20 C          -0.5530   -5.8980   -3.0610 C.3     1  UNL1        0.0628
     21 O          -1.7790   -6.3150   -2.4420 O.3     1  UNL1       -0.3814
     22 C          -1.5530   -7.3450   -1.4890 C.3     1  UNL1        0.0365
     23 S          -1.2720   -1.7170   -1.5140 S.2     1  UNL1       -0.0478
     24 C           0.5200    1.9620    2.0480 C.ar    1  UNL1       -0.0281
     25 H           4.0900    3.9510    4.5660 H       1  UNL1        0.0426
     26 H           4.8490    3.7520    2.9580 H       1  UNL1        0.0426
     27 H           3.9000    5.2220    3.3260 H       1  UNL1        0.0426
     28 H           2.7780    3.2700    2.0020 H       1  UNL1        0.1487
     29 H          -0.9380    4.1400    4.2260 H       1  UNL1        0.0625
     30 H          -2.9630    3.2070    3.1980 H       1  UNL1        0.0621
     31 H          -3.2660    0.2720    1.4500 H       1  UNL1        0.0278
     32 H          -4.0560    1.8330    1.6900 H       1  UNL1        0.0278
     33 H          -3.1970    1.5310    0.1790 H       1  UNL1        0.0278
     34 H          -1.4290    0.0650    0.0970 H       1  UNL1        0.1552
     35 H           2.2710   -1.5570   -2.0120 H       1  UNL1        0.0843
     36 H          -2.3160   -3.8430   -2.9250 H       1  UNL1        0.1480
     37 H          -1.5880   -5.1270   -4.7870 H       1  UNL1        0.0484
     38 H           0.0500   -4.4980   -4.6140 H       1  UNL1        0.0484
     39 H           0.1490   -5.5610   -2.2900 H       1  UNL1        0.0575
     40 H          -0.1140   -6.7480   -3.5950 H       1  UNL1        0.0575
     41 H          -2.5150   -7.6290   -1.0540 H       1  UNL1        0.0523
     42 H          -0.8990   -6.9880   -0.6870 H       1  UNL1        0.0523
     43 H          -1.1140   -8.2240   -1.9710 H       1  UNL1        0.0523
     44 H           1.5050    1.5900    1.7930 H       1  UNL1        0.0644
@<TRIPOS>BOND
     1     1     2    1
     2     1    25    1
     3     1    26    1
     4     1    27    1
     5     2     3   am
     6     2    28    1
     7     3     4    2
     8     3     5    1
     9     5     6   ar
    10     5    24   ar
    11     6     7   ar
    12     6    29    1
    13     7     8   ar
    14     7    30    1
    15     8     9    1
    16     8    10   ar
    17     9    31    1
    18     9    32    1
    19     9    33    1
    20    10    11    1
    21    10    24   ar
    22    11    12   am
    23    11    34    1
    24    12    13    2
    25    12    14    1
    26    14    15   ar
    27    14    23   ar
    28    15    16   ar
    29    15    35    1
    30    16    17   ar
    31    17    18    1
    32    17    23   ar
    33    18    19    1
    34    18    36    1
    35    19    20    1
    36    19    37    1
    37    19    38    1
    38    20    21    1
    39    20    39    1
    40    20    40    1
    41    21    22    1
    42    22    41    1
    43    22    42    1
    44    22    43    1
    45    24    44    1
@<TRIPOS>MOLECULE
AD3CC00054347-I00-C00
 43 44 0 0 0
SMALL
GASTEIGER

@<TRIPOS>ATOM
      1 C           0.1690   -6.0880   -3.6970 C.3     1  UNL1        0.0004
      2 N           0.3840   -4.8420   -3.0060 N.am    1  UNL1       -0.3144
      3 C           1.6350   -4.5060   -2.5290 C.2     1  UNL1        0.2439
      4 O           2.6070   -5.2490   -2.6110 O.2     1  UNL1       -0.2702
      5 C           1.7820   -3.1500   -1.9270 C.ar    1  UNL1        0.0385
      6 C           3.0550   -2.5790   -1.8900 C.ar    1  UNL1       -0.0493
      7 C           3.2380   -1.3160   -1.3300 C.ar    1  UNL1       -0.0564
      8 C           2.1510   -0.6010   -0.7970 C.ar    1  UNL1       -0.0292
      9 C           2.4170    0.7610   -0.2120 C.3     1  UNL1       -0.0380
     10 C           0.8600   -1.1760   -0.8260 C.ar    1  UNL1        0.0373
     11 N          -0.2190   -0.4440   -0.2790 N.am    1  UNL1       -0.2808
     12 C          -1.5730   -0.7450   -0.3040 C.2     1  UNL1        0.2565
     13 O          -2.0550   -1.7230   -0.8660 O.2     1  UNL1       -0.2692
     14 C          -2.4190    0.2170    0.3820 C.ar    1  UNL1        0.0953
     15 C          -3.7940    0.1970    0.4810 C.ar    1  UNL1        0.0490
     16 N          -4.3610    1.2370    1.1910 N.ar    1  UNL1       -0.2325
     17 C          -3.4310    2.0440    1.6440 C.ar    1  UNL1        0.1589
     18 N          -3.7610    3.1470    2.3580 N.pl3   1  UNL1       -0.3211
     19 C          -2.9090    3.6940    3.4060 C.3     1  UNL1        0.0168
     20 C          -3.0120    2.8450    4.6720 C.3     1  UNL1       -0.0469
     21 C          -3.3580    5.1270    3.6910 C.3     1  UNL1       -0.0469
     22 S          -1.8240    1.5890    1.2160 S.2     1  UNL1       -0.0478
     23 C           0.6960   -2.4540   -1.3790 C.ar    1  UNL1       -0.0281
     24 H          -0.9030   -6.2940   -3.7180 H       1  UNL1        0.0426
     25 H           0.5480   -5.9910   -4.7180 H       1  UNL1        0.0426
     26 H           0.6960   -6.9000   -3.1890 H       1  UNL1        0.0426
     27 H          -0.3160   -4.1200   -3.1130 H       1  UNL1        0.1487
     28 H           3.9090   -3.1170   -2.2970 H       1  UNL1        0.0625
     29 H           4.2410   -0.8930   -1.3140 H       1  UNL1        0.0621
     30 H           2.1670    0.7710    0.8530 H       1  UNL1        0.0278
     31 H           3.4710    1.0430   -0.3060 H       1  UNL1        0.0278
     32 H           1.8280    1.5210   -0.7370 H       1  UNL1        0.0278
     33 H           0.0090    0.4380    0.1610 H       1  UNL1        0.1552
     34 H          -4.4360   -0.5600    0.0460 H       1  UNL1        0.0843
     35 H          -4.7540    3.1770    2.5770 H       1  UNL1        0.1482
     36 H          -1.8620    3.7390    3.0820 H       1  UNL1        0.0492
     37 H          -2.4020    3.2710    5.4760 H       1  UNL1        0.0247
     38 H          -4.0470    2.7830    5.0280 H       1  UNL1        0.0247
     39 H          -2.6630    1.8230    4.4940 H       1  UNL1        0.0247
     40 H          -4.3990    5.1610    4.0310 H       1  UNL1        0.0247
     41 H          -3.2850    5.7430    2.7880 H       1  UNL1        0.0247
     42 H          -2.7320    5.5850    4.4640 H       1  UNL1        0.0247
     43 H          -0.2710   -2.9420   -1.3550 H       1  UNL1        0.0644
@<TRIPOS>BOND
     1     1     2    1
     2     1    24    1
     3     1    25    1
     4     1    26    1
     5     2     3   am
     6     2    27    1
     7     3     4    2
     8     3     5    1
     9     5     6   ar
    10     5    23   ar
    11     6     7   ar
    12     6    28    1
    13     7     8   ar
    14     7    29    1
    15     8     9    1
    16     8    10   ar
    17     9    30    1
    18     9    31    1
    19     9    32    1
    20    10    11    1
    21    10    23   ar
    22    11    12   am
    23    11    33    1
    24    12    13    2
    25    12    14    1
    26    14    15   ar
    27    14    22   ar
    28    15    16   ar
    29    15    34    1
    30    16    17   ar
    31    17    18    1
    32    17    22   ar
    33    18    19    1
    34    18    35    1
    35    19    20    1
    36    19    21    1
    37    19    36    1
    38    20    37    1
    39    20    38    1
    40    20    39    1
    41    21    40    1
    42    21    41    1
    43    21    42    1
    44    23    43    1
@<TRIPOS>MOLECULE
AD3CC00054490-I00-C00
 46 47 0 0 0
SMALL
GASTEIGER

@<TRIPOS>ATOM
      1 C           5.0650   -1.5670    2.9390 C.3     1  UNL1       -0.0636
      2 C           4.2570   -1.0750    4.1330 C.3     1  UNL1       -0.0376
      3 C           2.8150   -0.6910    3.7550 C.3     1  UNL1        0.0194
      4 C           2.1130   -0.0570    4.9580 C.3     1  UNL1       -0.0467
      5 N           2.0960   -1.8890    3.3420 N.pl3   1  UNL1       -0.3209
      6 C           0.9500   -1.8520    2.6210 C.ar    1  UNL1        0.1589
      7 N           0.0440   -2.7920    2.7560 N.ar    1  UNL1       -0.2325
      8 C          -1.0230   -2.5590    1.9110 C.ar    1  UNL1        0.0490
      9 C          -0.9260   -1.4340    1.1180 C.ar    1  UNL1        0.0953
     10 C          -1.8970   -0.9580    0.1470 C.2     1  UNL1        0.2565
     11 O          -2.9610   -1.5450   -0.0230 O.2     1  UNL1       -0.2692
     12 N          -1.5200    0.1930   -0.5280 N.am    1  UNL1       -0.2808
     13 C          -2.2200    0.8980   -1.5360 C.ar    1  UNL1        0.0373
     14 C          -3.4080    0.4150   -2.1020 C.ar    1  UNL1       -0.0281
     15 C          -4.0870    1.1450   -3.0880 C.ar    1  UNL1        0.0385
     16 C          -5.3570    0.6600   -3.7030 C.2     1  UNL1        0.2439
     17 O          -5.7010    1.0740   -4.8050 O.2     1  UNL1       -0.2702
     18 N          -6.1100   -0.2250   -2.9590 N.am    1  UNL1       -0.3144
     19 C          -7.3990   -0.6680   -3.4260 C.3     1  UNL1        0.0004
     20 C          -3.5560    2.3540   -3.5390 C.ar    1  UNL1       -0.0493
     21 C          -2.3680    2.8400   -2.9960 C.ar    1  UNL1       -0.0564
     22 C          -1.6900    2.1260   -1.9930 C.ar    1  UNL1       -0.0292
     23 C          -0.4140    2.7100   -1.4470 C.3     1  UNL1       -0.0380
     24 S           0.5570   -0.6470    1.4530 S.2     1  UNL1       -0.0478
     25 H           4.6410   -2.4850    2.5200 H       1  UNL1        0.0230
     26 H           6.0940   -1.7820    3.2440 H       1  UNL1        0.0230
     27 H           5.0970   -0.8100    2.1490 H       1  UNL1        0.0230
     28 H           4.2550   -1.8520    4.9070 H       1  UNL1        0.0280
     29 H           4.7680   -0.2020    4.5570 H       1  UNL1        0.0280
     30 H           2.8660    0.0460    2.9440 H       1  UNL1        0.0495
     31 H           2.6510    0.8340    5.2980 H       1  UNL1        0.0247
     32 H           2.0500   -0.7580    5.7980 H       1  UNL1        0.0247
     33 H           1.0910    0.2470    4.7050 H       1  UNL1        0.0247
     34 H           2.0900   -2.6300    4.0380 H       1  UNL1        0.1482
     35 H          -1.8580   -3.2500    1.9080 H       1  UNL1        0.0843
     36 H          -0.6370    0.5860   -0.2320 H       1  UNL1        0.1552
     37 H          -3.7990   -0.5530   -1.8150 H       1  UNL1        0.0644
     38 H          -5.8940   -0.3610   -1.9800 H       1  UNL1        0.1487
     39 H          -8.1290    0.1260   -3.2450 H       1  UNL1        0.0426
     40 H          -7.3610   -0.8910   -4.4960 H       1  UNL1        0.0426
     41 H          -7.6820   -1.5640   -2.8690 H       1  UNL1        0.0426
     42 H          -4.0650    2.9200   -4.3160 H       1  UNL1        0.0625
     43 H          -1.9740    3.7850   -3.3660 H       1  UNL1        0.0621
     44 H          -0.1810    3.6760   -1.9070 H       1  UNL1        0.0278
     45 H           0.4270    2.0390   -1.6480 H       1  UNL1        0.0278
     46 H          -0.5030    2.8770   -0.3680 H       1  UNL1        0.0278
@<TRIPOS>BOND
     1     1     2    1
     2     1    25    1
     3     1    26    1
     4     1    27    1
     5     2     3    1
     6     2    28    1
     7     2    29    1
     8     3     4    1
     9     3     5    1
    10     3    30    1
    11     4    31    1
    12     4    32    1
    13     4    33    1
    14     5     6    1
    15     5    34    1
    16     6     7   ar
    17     6    24   ar
    18     7     8   ar
    19     8     9   ar
    20     8    35    1
    21     9    10    1
    22     9    24   ar
    23    10    11    2
    24    10    12   am
    25    12    13    1
    26    12    36    1
    27    13    14   ar
    28    13    22   ar
    29    14    15   ar
    30    14    37    1
    31    15    16    1
    32    15    20   ar
    33    16    17    2
    34    16    18   am
    35    18    19    1
    36    18    38    1
    37    19    39    1
    38    19    40    1
    39    19    41    1
    40    20    21   ar
    41    20    42    1
    42    21    22   ar
    43    21    43    1
    44    22    23    1
    45    23    44    1
    46    23    45    1
    47    23    46    1
@<TRIPOS>MOLECULE
AD3CC00055761-I00-C00
 88 94 0 0 0
SMALL
GASTEIGER

@<TRIPOS>ATOM
      1 C          -6.8890   -0.2620    2.6090 C.3     1  UNL1        0.0790
      2 O          -6.3850    0.3360    1.4250 O.3     1  UNL1       -0.4913
      3 C          -5.3840   -0.3320    0.7650 C.ar    1  UNL1        0.1669
      4 C          -4.5820   -1.3230    1.3420 C.ar    1  UNL1        0.0052
      5 C          -3.5550   -1.9390    0.6110 C.ar    1  UNL1        0.0407
      6 N          -2.6820   -2.8220    1.2620 N.pl3   1  UNL1       -0.2833
      7 C          -1.3100   -2.9990    1.1200 C.ar    1  UNL1        0.2214
      8 N          -0.7620   -3.9820    1.8510 N.ar    1  UNL1       -0.2218
      9 C           0.5760   -4.1610    1.7570 C.ar    1  UNL1        0.0471
     10 C           1.3910   -3.3720    0.9810 C.ar    1  UNL1        0.1009
     11 C           2.8470   -3.5820    0.9110 C.ar    1  UNL1        0.2706
     12 O           3.3150   -4.5120    1.5610 O.2     1  UNL1       -0.2664
     13 N           3.5680   -2.7180    0.0910 N.ar    1  UNL1       -0.2455
     14 C           4.9810   -2.7910   -0.0200 C.ar    1  UNL1        0.0586
     15 C           5.7960   -2.4900    1.0980 C.ar    1  UNL1       -0.0262
     16 C           5.2330   -2.0600    2.4250 C.3     1  UNL1       -0.0377
     17 C           7.1910   -2.5980    0.9790 C.ar    1  UNL1       -0.0569
     18 C           7.7780   -2.9650   -0.2290 C.ar    1  UNL1       -0.0611
     19 C           6.9780   -3.2510   -1.3310 C.ar    1  UNL1       -0.0569
     20 C           5.5780   -3.1880   -1.2410 C.ar    1  UNL1       -0.0262
     21 C           4.7740   -3.5440   -2.4620 C.3     1  UNL1       -0.0377
     22 C           2.9270   -1.6760   -0.5700 C.ar    1  UNL1        0.2252
     23 N           3.4640   -0.7370   -1.3190 N.ar    1  UNL1       -0.2113
     24 C           2.4260    0.0680   -1.7080 C.ar    1  UNL1        0.0915
     25 C           2.4550    1.2220   -2.5060 C.ar    1  UNL1       -0.0342
     26 C           1.2580    1.9000   -2.7590 C.ar    1  UNL1       -0.0596
     27 C           0.0550    1.4390   -2.2260 C.ar    1  UNL1       -0.0597
     28 C           0.0070    0.2900   -1.4300 C.ar    1  UNL1       -0.0356
     29 C           1.2140   -0.3840   -1.1910 C.ar    1  UNL1        0.0767
     30 N           1.5600   -1.5070   -0.4680 N.ar    1  UNL1       -0.2612
     31 C           0.7510   -2.3710    0.2930 C.ar    1  UNL1        0.1582
     32 N          -0.5870   -2.1800    0.3380 N.ar    1  UNL1       -0.1956
     33 C          -3.3760   -1.5800   -0.7330 C.ar    1  UNL1        0.0052
     34 C          -4.1740   -0.6070   -1.3370 C.ar    1  UNL1        0.1669
     35 O          -4.0570   -0.2140   -2.6480 O.3     1  UNL1       -0.4913
     36 C          -3.3960   -1.1160   -3.5280 C.3     1  UNL1        0.0790
     37 C          -5.1340    0.0590   -0.5590 C.ar    1  UNL1        0.2039
     38 O          -5.8780    1.0920   -1.0910 O.3     1  UNL1       -0.4852
     39 C          -5.0650    2.2650   -1.2700 C.3     1  UNL1        0.0911
     40 C          -5.3400    3.2580   -0.1420 C.3     1  UNL1       -0.0058
     41 C          -4.3760    4.4490   -0.1450 C.3     1  UNL1        0.0021
     42 N          -2.9510    4.0880   -0.0420 N.3     1  UNL1       -0.2998
     43 C          -2.1080    5.3000   -0.1280 C.3     1  UNL1        0.0117
     44 C          -0.6010    4.9880    0.0130 C.3     1  UNL1        0.0114
     45 N          -0.2930    4.2920    1.2750 N.3     1  UNL1       -0.3029
     46 C           1.1240    3.9440    1.3380 C.3     1  UNL1       -0.0127
     47 C          -1.1300    3.0810    1.3770 C.3     1  UNL1        0.0114
     48 C          -2.6390    3.3820    1.2200 C.3     1  UNL1        0.0117
     49 H          -7.8000    0.2750    2.8940 H       1  UNL1        0.0660
     50 H          -7.1590   -1.3120    2.4460 H       1  UNL1        0.0660
     51 H          -6.1710   -0.1620    3.4310 H       1  UNL1        0.0660
     52 H          -4.7120   -1.5960    2.3840 H       1  UNL1        0.0674
     53 H          -3.0310   -3.3340    2.0580 H       1  UNL1        0.1550
     54 H           0.9740   -4.9800    2.3510 H       1  UNL1        0.0839
     55 H           4.3570   -1.4190    2.2980 H       1  UNL1        0.0278
     56 H           5.9660   -1.4740    2.9920 H       1  UNL1        0.0278
     57 H           4.9630   -2.9340    3.0250 H       1  UNL1        0.0278
     58 H           7.8330   -2.3820    1.8310 H       1  UNL1        0.0621
     59 H           8.8600   -3.0290   -0.3110 H       1  UNL1        0.0618
     60 H           7.4540   -3.5410   -2.2650 H       1  UNL1        0.0621
     61 H           5.3520   -4.1740   -3.1440 H       1  UNL1        0.0278
     62 H           4.4850   -2.6400   -3.0050 H       1  UNL1        0.0278
     63 H           3.8790   -4.1130   -2.1990 H       1  UNL1        0.0278
     64 H           3.3960    1.5790   -2.9110 H       1  UNL1        0.0639
     65 H           1.2680    2.7980   -3.3710 H       1  UNL1        0.0618
     66 H          -0.8670    1.9870   -2.4210 H       1  UNL1        0.0618
     67 H          -0.9340   -0.0410   -1.0070 H       1  UNL1        0.0639
     68 H          -2.5900   -2.0710   -1.2980 H       1  UNL1        0.0674
     69 H          -3.5650   -0.7660   -4.5510 H       1  UNL1        0.0660
     70 H          -3.8090   -2.1290   -3.4530 H       1  UNL1        0.0660
     71 H          -2.3160   -1.1120   -3.3500 H       1  UNL1        0.0660
     72 H          -3.9960    2.0320   -1.3390 H       1  UNL1        0.0697
     73 H          -5.3520    2.7130   -2.2290 H       1  UNL1        0.0697
     74 H          -6.3690    3.6260   -0.2460 H       1  UNL1        0.0310
     75 H          -5.3190    2.7540    0.8310 H       1  UNL1        0.0310
     76 H          -4.5310    4.9960   -1.0840 H       1  UNL1        0.0428
     77 H          -4.6600    5.1290    0.6710 H       1  UNL1        0.0428
     78 H          -2.2650    5.7860   -1.0980 H       1  UNL1        0.0439
     79 H          -2.3970    6.0200    0.6480 H       1  UNL1        0.0439
     80 H          -0.2780    4.3930   -0.8510 H       1  UNL1        0.0439
     81 H          -0.0520    5.9380   -0.0200 H       1  UNL1        0.0439
     82 H           1.7430    4.8460    1.2840 H       1  UNL1        0.0391
     83 H           1.3560    3.4610    2.2940 H       1  UNL1        0.0391
     84 H           1.4270    3.2660    0.5300 H       1  UNL1        0.0391
     85 H          -0.9750    2.6110    2.3550 H       1  UNL1        0.0439
     86 H          -0.8370    2.3460    0.6190 H       1  UNL1        0.0439
     87 H          -3.1580    2.4180    1.2490 H       1  UNL1        0.0439
     88 H          -2.9810    3.9660    2.0840 H       1  UNL1        0.0439
@<TRIPOS>BOND
     1     1     2    1
     2     1    49    1
     3     1    50    1
     4     1    51    1
     5     2     3    1
     6     3     4   ar
     7     3    37   ar
     8     4     5   ar
     9     4    52    1
    10     5     6    1
    11     5    33   ar
    12     6     7    1
    13     6    53    1
    14     7     8   ar
    15     7    32   ar
    16     8     9   ar
    17     9    10   ar
    18     9    54    1
    19    10    11   ar
    20    10    31   ar
    21    11    12    2
    22    11    13   ar
    23    13    14    1
    24    13    22   ar
    25    14    15   ar
    26    14    20   ar
    27    15    16    1
    28    15    17   ar
    29    16    55    1
    30    16    56    1
    31    16    57    1
    32    17    18   ar
    33    17    58    1
    34    18    19   ar
    35    18    59    1
    36    19    20   ar
    37    19    60    1
    38    20    21    1
    39    21    61    1
    40    21    62    1
    41    21    63    1
    42    22    23   ar
    43    22    30   ar
    44    23    24   ar
    45    24    25   ar
    46    24    29   ar
    47    25    26   ar
    48    25    64    1
    49    26    27   ar
    50    26    65    1
    51    27    28   ar
    52    27    66    1
    53    28    29   ar
    54    28    67    1
    55    29    30   ar
    56    30    31   ar
    57    31    32   ar
    58    33    34   ar
    59    33    68    1
    60    34    35    1
    61    34    37   ar
    62    35    36    1
    63    36    69    1
    64    36    70    1
    65    36    71    1
    66    37    38    1
    67    38    39    1
    68    39    40    1
    69    39    72    1
    70    39    73    1
    71    40    41    1
    72    40    74    1
    73    40    75    1
    74    41    42    1
    75    41    76    1
    76    41    77    1
    77    42    43    1
    78    42    48    1
    79    43    44    1
    80    43    78    1
    81    43    79    1
    82    44    45    1
    83    44    80    1
    84    44    81    1
    85    45    46    1
    86    45    47    1
    87    46    82    1
    88    46    83    1
    89    46    84    1
    90    47    48    1
    91    47    85    1
    92    47    86    1
    93    48    87    1
    94    48    88    1
@<TRIPOS>MOLECULE
AD3CC00056270-I00-C00
 46 49 0 0 0
SMALL
GASTEIGER

@<TRIPOS>ATOM
      1 C          -1.1650    2.1550   -0.9210 C.3     1  UNL1        0.0168
      2 N          -0.8770    0.8340   -1.4530 N.ar    1  UNL1       -0.2928
      3 C          -1.2460    0.5140   -2.7530 C.ar    1  UNL1        0.2951
      4 O          -1.7830    1.3180   -3.5150 O.2     1  UNL1       -0.2636
      5 C          -0.9440   -0.8890   -3.2250 C.ar    1  UNL1        0.1934
      6 O          -1.3020   -1.2940   -4.5090 O.3     1  UNL1       -0.4477
      7 C          -2.6050   -1.1070   -4.9080 C.ar    1  UNL1        0.1639
      8 C          -2.8020   -0.6520   -6.2140 C.ar    1  UNL1       -0.0137
      9 C          -4.1000   -0.4680   -6.6940 C.ar    1  UNL1       -0.0228
     10 C          -5.1860   -0.7540   -5.8710 C.ar    1  UNL1        0.1264
     11 F          -6.4290   -0.5790   -6.3380 F       1  UNL1       -0.2054
     12 C          -5.0040   -1.2260   -4.5780 C.ar    1  UNL1        0.0125
     13 C          -3.7100   -1.4070   -4.1040 C.ar    1  UNL1        0.1681
     14 F          -3.5430   -1.8950   -2.8660 F       1  UNL1       -0.2015
     15 C          -0.2640   -1.7330   -2.4390 C.ar    1  UNL1       -0.0018
     16 C           0.1210   -1.3280   -1.1000 C.ar    1  UNL1        0.0394
     17 C           0.8020   -2.1460   -0.2290 C.ar    1  UNL1        0.0419
     18 N           1.1580   -1.7760    1.0150 N.ar    1  UNL1       -0.2222
     19 C           0.8110   -0.5450    1.4070 C.ar    1  UNL1        0.2173
     20 N           1.1260   -0.0950    2.6750 N.pl3   1  UNL1       -0.3104
     21 C           2.3280   -0.6290    3.3040 C.3     1  UNL1        0.0275
     22 C           2.2990   -0.2690    4.7930 C.3     1  UNL1       -0.0109
     23 C           3.5960   -0.6980    5.4610 C.3     1  UNL1        0.0493
     24 O           4.7170   -0.1020    4.8090 O.3     1  UNL1       -0.3796
     25 C           4.8230   -0.5010    3.4430 C.3     1  UNL1        0.0493
     26 C           3.5960   -0.0620    2.6580 C.3     1  UNL1       -0.0109
     27 N           0.1570    0.3270    0.6320 N.ar    1  UNL1       -0.1964
     28 C          -0.1860   -0.0740   -0.6110 C.ar    1  UNL1        0.1484
     29 H          -1.7680    2.0600   -0.0130 H       1  UNL1        0.0457
     30 H          -1.7240    2.7660   -1.6360 H       1  UNL1        0.0457
     31 H          -0.2240    2.6670   -0.6950 H       1  UNL1        0.0457
     32 H          -1.9500   -0.4260   -6.8490 H       1  UNL1        0.0656
     33 H          -4.2710   -0.1010   -7.7020 H       1  UNL1        0.0647
     34 H          -5.8570   -1.4550   -3.9500 H       1  UNL1        0.0676
     35 H          -0.0200   -2.7320   -2.7820 H       1  UNL1        0.0664
     36 H           1.0930   -3.1560   -0.5030 H       1  UNL1        0.0838
     37 H           1.0320    0.9150    2.6730 H       1  UNL1        0.1492
     38 H           2.3410   -1.7260    3.2340 H       1  UNL1        0.0500
     39 H           1.4430   -0.7420    5.2880 H       1  UNL1        0.0305
     40 H           2.1780    0.8170    4.9050 H       1  UNL1        0.0305
     41 H           3.7080   -1.7880    5.4580 H       1  UNL1        0.0560
     42 H           3.6050   -0.3680    6.5050 H       1  UNL1        0.0560
     43 H           4.9650   -1.5870    3.3890 H       1  UNL1        0.0560
     44 H           5.7190   -0.0300    3.0270 H       1  UNL1        0.0560
     45 H           3.5430    1.0350    2.6550 H       1  UNL1        0.0305
     46 H           3.6870   -0.3850    1.6150 H       1  UNL1        0.0305
@<TRIPOS>BOND
     1     1     2    1
     2     1    29    1
     3     1    30    1
     4     1    31    1
     5     2     3   ar
     6     2    28   ar
     7     3     4    2
     8     3     5   ar
     9     5     6    1
    10     5    15   ar
    11     6     7    1
    12     7     8   ar
    13     7    13   ar
    14     8     9   ar
    15     8    32    1
    16     9    10   ar
    17     9    33    1
    18    10    11    1
    19    10    12   ar
    20    12    13   ar
    21    12    34    1
    22    13    14    1
    23    15    16   ar
    24    15    35    1
    25    16    17   ar
    26    16    28   ar
    27    17    18   ar
    28    17    36    1
    29    18    19   ar
    30    19    20    1
    31    19    27   ar
    32    20    21    1
    33    20    37    1
    34    21    22    1
    35    21    26    1
    36    21    38    1
    37    22    23    1
    38    22    39    1
    39    22    40    1
    40    23    24    1
    41    23    41    1
    42    23    42    1
    43    24    25    1
    44    25    26    1
    45    25    43    1
    46    25    44    1
    47    26    45    1
    48    26    46    1
    49    27    28   ar
@<TRIPOS>MOLECULE
AD3CC00060346-I00-C00
 43 46 0 0 0
SMALL
GASTEIGER

@<TRIPOS>ATOM
      1 O           0.1510    0.4660    3.5560 O.2     1  UNL1       -0.2750
      2 C           0.3850    1.1070    2.5360 C.2     1  UNL1        0.2239
      3 C           0.4920    2.6220    2.5650 C.3     1  UNL1        0.0536
      4 C          -0.7560    3.2980    2.0550 C.ar    1  UNL1        0.0148
      5 C          -0.8750    3.5490    0.6820 C.ar    1  UNL1        0.1284
      6 F           0.1240    3.1940   -0.1410 F       1  UNL1       -0.2051
      7 C          -2.0070    4.1440    0.1340 C.ar    1  UNL1       -0.0261
      8 C          -3.0640    4.5000    0.9650 C.ar    1  UNL1       -0.0577
      9 C          -2.9770    4.2520    2.3350 C.ar    1  UNL1       -0.0429
     10 C          -1.8340    3.6520    2.8780 C.ar    1  UNL1        0.0473
     11 CL         -1.8130    3.3780    4.5810 Cl      1  UNL1       -0.0832
     12 N           0.5700    0.5860    1.2720 N.am    1  UNL1       -0.2534
     13 C           0.5700   -0.7610    0.9940 C.ar    1  UNL1        0.2338
     14 O           0.4520   -1.6700    1.9940 O.2     1  UNL1       -0.3381
     15 N           0.5110   -2.9470    1.4710 N.ar    1  UNL1       -0.0754
     16 C           0.6810   -2.8020    0.1480 C.ar    1  UNL1        0.1245
     17 C           0.8440   -3.9800   -0.6990 C.ar    1  UNL1        0.0045
     18 C          -0.0540   -5.0540   -0.5920 C.ar    1  UNL1       -0.0497
     19 C           0.0930   -6.1790   -1.4060 C.ar    1  UNL1       -0.0258
     20 C           1.1400   -6.2330   -2.3180 C.ar    1  UNL1        0.1234
     21 F           1.2790   -7.3110   -3.1000 F       1  UNL1       -0.2055
     22 C           2.0470   -5.1860   -2.4290 C.ar    1  UNL1       -0.0258
     23 C           1.9040   -4.0590   -1.6170 C.ar    1  UNL1       -0.0497
     24 C           0.6770   -1.4200   -0.2140 C.ar    1  UNL1        0.0897
     25 C           0.7320   -0.7400   -1.4960 C.ar    1  UNL1        0.0812
     26 C           0.1560   -1.2810   -2.6280 C.ar    1  UNL1       -0.0173
     27 C           0.2580   -0.5290   -3.7760 C.ar    1  UNL1        0.0313
     28 N           0.8680    0.6670   -3.8280 N.ar    1  UNL1       -0.2437
     29 C           1.3820    1.1110   -2.6730 C.ar    1  UNL1        0.1166
     30 N           1.3380    0.4700   -1.4950 N.ar    1  UNL1       -0.2352
     31 H           0.7350    2.9410    3.5850 H       1  UNL1        0.0408
     32 H           1.3610    2.9300    1.9680 H       1  UNL1        0.0408
     33 H          -2.0590    4.3210   -0.9360 H       1  UNL1        0.0646
     34 H          -3.9560    4.9640    0.5500 H       1  UNL1        0.0619
     35 H          -3.8090    4.5260    2.9810 H       1  UNL1        0.0632
     36 H           0.7280    1.2010    0.4770 H       1  UNL1        0.1578
     37 H          -0.8680   -5.0190    0.1300 H       1  UNL1        0.0625
     38 H          -0.5970   -7.0130   -1.3270 H       1  UNL1        0.0646
     39 H           2.8650   -5.2580   -3.1400 H       1  UNL1        0.0646
     40 H           2.6340   -3.2550   -1.6950 H       1  UNL1        0.0625
     41 H          -0.3660   -2.2280   -2.6350 H       1  UNL1        0.0654
     42 H          -0.1660   -0.8760   -4.7140 H       1  UNL1        0.0831
     43 H           1.8740    2.0770   -2.6930 H       1  UNL1        0.1047
@<TRIPOS>BOND
     1     1     2    2
     2     2     3    1
     3     2    12   am
     4     3     4    1
     5     3    31    1
     6     3    32    1
     7     4     5   ar
     8     4    10   ar
     9     5     6    1
    10     5     7   ar
    11     7     8   ar
    12     7    33    1
    13     8     9   ar
    14     8    34    1
    15     9    10   ar
    16     9    35    1
    17    10    11    1
    18    12    13    1
    19    12    36    1
    20    13    14   ar
    21    13    24   ar
    22    14    15   ar
    23    15    16   ar
    24    16    17    1
    25    16    24   ar
    26    17    18   ar
    27    17    23   ar
    28    18    19   ar
    29    18    37    1
    30    19    20   ar
    31    19    38    1
    32    20    21    1
    33    20    22   ar
    34    22    23   ar
    35    22    39    1
    36    23    40    1
    37    24    25    1
    38    25    26   ar
    39    25    30   ar
    40    26    27   ar
    41    26    41    1
    42    27    28   ar
    43    27    42    1
    44    28    29   ar
    45    29    30   ar
    46    29    43    1
@<TRIPOS>MOLECULE
AD3CC00061627-I00-C01
 47 50 0 0 0
SMALL
GASTEIGER

@<TRIPOS>ATOM
      1 C           2.4740    3.2590   -0.4300 C.3     1  UNL1       -0.0397
      2 C           2.5670    2.5550    0.8920 C.ar    1  UNL1       -0.0498
      3 C           3.1760    3.1780    1.9870 C.ar    1  UNL1       -0.0588
      4 C           3.3020    2.5040    3.2020 C.ar    1  UNL1       -0.0609
      5 C           2.8210    1.2000    3.3310 C.ar    1  UNL1       -0.0525
      6 C           2.2040    0.5600    2.2490 C.ar    1  UNL1        0.0017
      7 C           1.7100   -0.8020    2.4130 C.ar    1  UNL1        0.0862
      8 N           2.4910   -1.7410    3.0750 N.ar    1  UNL1       -0.2437
      9 C           1.8770   -2.9020    3.0980 C.ar    1  UNL1        0.0765
     10 C           2.4420   -4.1380    3.7040 C.3     1  UNL1       -0.0159
     11 S           0.3240   -2.9330    2.3750 S.2     1  UNL1       -0.0717
     12 C           0.4700   -1.2610    1.9830 C.ar    1  UNL1        0.0470
     13 C          -0.6560   -0.5740    1.3440 C.ar    1  UNL1       -0.0045
     14 C          -1.2350    0.5370    1.9560 C.ar    1  UNL1       -0.0352
     15 C          -2.2860    1.1630    1.3140 C.ar    1  UNL1        0.0303
     16 N          -2.7870    0.7610    0.1270 N.ar    1  UNL1       -0.2401
     17 C          -2.2150   -0.3120   -0.4610 C.ar    1  UNL1        0.1257
     18 N          -2.8050   -0.6420   -1.6820 N.am    1  UNL1       -0.2663
     19 C          -2.4330   -1.6220   -2.5710 C.2     1  UNL1        0.2493
     20 O          -1.4610   -2.3610   -2.4710 O.2     1  UNL1       -0.2698
     21 C          -3.2980   -1.7410   -3.7800 C.ar    1  UNL1        0.0371
     22 C          -2.7090   -2.1510   -4.9830 C.ar    1  UNL1       -0.0496
     23 C          -3.4840   -2.2750   -6.1380 C.ar    1  UNL1       -0.0610
     24 C          -4.8500   -2.0010   -6.0930 C.ar    1  UNL1       -0.0617
     25 C          -5.4460   -1.6100   -4.8940 C.ar    1  UNL1       -0.0610
     26 C          -4.6750   -1.4830   -3.7360 C.ar    1  UNL1       -0.0496
     27 C          -1.1590   -1.0040    0.1110 C.ar    1  UNL1       -0.0132
     28 C           2.1020    1.2390    1.0260 C.ar    1  UNL1       -0.0496
     29 H           2.4070    4.3440   -0.2910 H       1  UNL1        0.0278
     30 H           3.3560    3.0340   -1.0370 H       1  UNL1        0.0278
     31 H           1.5770    2.9460   -0.9750 H       1  UNL1        0.0278
     32 H           3.5640    4.1900    1.8980 H       1  UNL1        0.0620
     33 H           3.7830    2.9890    4.0470 H       1  UNL1        0.0618
     34 H           2.9330    0.6790    4.2790 H       1  UNL1        0.0624
     35 H           1.8060   -4.4980    4.5190 H       1  UNL1        0.0298
     36 H           3.4370   -3.9420    4.1150 H       1  UNL1        0.0298
     37 H           2.5370   -4.9310    2.9540 H       1  UNL1        0.0298
     38 H          -0.8800    0.9110    2.9100 H       1  UNL1        0.0639
     39 H          -2.7690    2.0320    1.7520 H       1  UNL1        0.0830
     40 H          -3.5500   -0.0020   -1.9200 H       1  UNL1        0.1566
     41 H          -1.6440   -2.3730   -5.0230 H       1  UNL1        0.0625
     42 H          -3.0210   -2.5900   -7.0700 H       1  UNL1        0.0618
     43 H          -5.4530   -2.1020   -6.9920 H       1  UNL1        0.0618
     44 H          -6.5160   -1.4140   -4.8590 H       1  UNL1        0.0618
     45 H          -5.1690   -1.2120   -2.8070 H       1  UNL1        0.0625
     46 H          -0.7150   -1.8630   -0.3790 H       1  UNL1        0.0658
     47 H           1.6670    0.7410    0.1610 H       1  UNL1        0.0627
@<TRIPOS>BOND
     1     1     2    1
     2     1    29    1
     3     1    30    1
     4     1    31    1
     5     2     3   ar
     6     2    28   ar
     7     3     4   ar
     8     3    32    1
     9     4     5   ar
    10     4    33    1
    11     5     6   ar
    12     5    34    1
    13     6     7    1
    14     6    28   ar
    15     7     8   ar
    16     7    12   ar
    17     8     9   ar
    18     9    10    1
    19     9    11   ar
    20    10    35    1
    21    10    36    1
    22    10    37    1
    23    11    12   ar
    24    12    13    1
    25    13    14   ar
    26    13    27   ar
    27    14    15   ar
    28    14    38    1
    29    15    16   ar
    30    15    39    1
    31    16    17   ar
    32    17    18    1
    33    17    27   ar
    34    18    19   am
    35    18    40    1
    36    19    20    2
    37    19    21    1
    38    21    22   ar
    39    21    26   ar
    40    22    23   ar
    41    22    41    1
    42    23    24   ar
    43    23    42    1
    44    24    25   ar
    45    24    43    1
    46    25    26   ar
    47    25    44    1
    48    26    45    1
    49    27    46    1
    50    28    47    1
@<TRIPOS>MOLECULE
AD3CC00063948-I00-C00
 92 96 0 0 0
SMALL
GASTEIGER

@<TRIPOS>ATOM
      1 C          -2.5330   -1.2770   -2.4780 C.3     1  UNL1        0.0788
      2 O          -1.6280   -1.6320   -1.4360 O.3     1  UNL1       -0.4950
      3 C          -1.3770   -0.6800   -0.4850 C.ar    1  UNL1        0.1237
      4 C          -0.3770   -1.0240    0.4260 C.ar    1  UNL1       -0.0180
      5 C          -0.0040   -0.1400    1.4410 C.ar    1  UNL1       -0.0328
      6 C          -0.6210    1.1150    1.5460 C.ar    1  UNL1        0.0877
      7 N          -0.1790    2.0330    2.5470 N.am    1  UNL1       -0.1857
      8 C          -0.2070    1.6850    3.9000 C.2     1  UNL1        0.4182
      9 O           0.3630    2.2970    4.8010 O.2     1  UNL1       -0.2250
     10 O          -0.9880    0.5450    4.1370 O.3     1  UNL1       -0.4104
     11 C          -1.1200    0.1740    5.4850 C.ar    1  UNL1        0.1390
     12 C          -0.2840   -0.8350    5.9880 C.ar    1  UNL1       -0.0078
     13 C           0.7630   -1.4810    5.1290 C.3     1  UNL1       -0.0362
     14 C          -0.4530   -1.2340    7.3190 C.ar    1  UNL1       -0.0553
     15 C          -1.4340   -0.6420    8.1170 C.ar    1  UNL1       -0.0610
     16 C          -2.2700    0.3450    7.5920 C.ar    1  UNL1       -0.0553
     17 C          -2.1360    0.7550    6.2610 C.ar    1  UNL1       -0.0078
     18 C          -3.0360    1.8210    5.7070 C.3     1  UNL1       -0.0362
     19 C           0.4270    3.2390    2.0560 C.ar    1  UNL1        0.1397
     20 C           0.6350    4.3350    2.8650 C.ar    1  UNL1       -0.0026
     21 C           1.2390    5.4230    2.2820 C.ar    1  UNL1        0.0345
     22 N           1.6260    5.4630    0.9960 N.ar    1  UNL1       -0.2225
     23 C           1.3900    4.3710    0.2600 C.ar    1  UNL1        0.2212
     24 N           1.8160    4.4350   -1.0670 N.pl3   1  UNL1       -0.2835
     25 C           1.7260    3.5490   -2.1470 C.ar    1  UNL1        0.0373
     26 C           1.0190    2.3430   -2.0920 C.ar    1  UNL1       -0.0368
     27 C           0.9720    1.4670   -3.1770 C.ar    1  UNL1       -0.0145
     28 C           1.6650    1.7730   -4.3420 C.ar    1  UNL1        0.1620
     29 O           1.6320    0.8980   -5.3960 O.3     1  UNL1       -0.4883
     30 C           2.5640   -0.1750   -5.1850 C.3     1  UNL1        0.0909
     31 C           1.7980   -1.4800   -4.9720 C.3     1  UNL1       -0.0058
     32 C           2.7360   -2.6020   -4.5190 C.3     1  UNL1        0.0021
     33 N           2.0600   -3.9010   -4.3620 N.3     1  UNL1       -0.2998
     34 C           1.0770   -3.8940   -3.2550 C.3     1  UNL1        0.0117
     35 C           0.4440   -5.2860   -3.0100 C.3     1  UNL1        0.0114
     36 N           1.4580   -6.3240   -2.7450 N.3     1  UNL1       -0.3029
     37 C           0.8290   -7.6330   -2.5850 C.3     1  UNL1       -0.0127
     38 C           2.4290   -6.3430   -3.8530 C.3     1  UNL1        0.0114
     39 C           3.0650   -4.9560   -4.0920 C.3     1  UNL1        0.0117
     40 C           2.3500    2.9830   -4.4420 C.ar    1  UNL1        0.1633
     41 O           3.0460    3.2590   -5.5910 O.3     1  UNL1       -0.4914
     42 C           2.5140    4.4070   -6.2500 C.3     1  UNL1        0.0790
     43 C           2.3970    3.8540   -3.3440 C.ar    1  UNL1        0.0049
     44 N           0.8010    3.2760    0.7560 N.ar    1  UNL1       -0.1985
     45 C          -1.6430    1.4590    0.6390 C.ar    1  UNL1        0.1453
     46 O          -2.2830    2.6600    0.8370 O.3     1  UNL1       -0.4931
     47 C          -2.6580    3.3410   -0.3560 C.3     1  UNL1        0.0789
     48 C          -2.0250    0.5530   -0.3620 C.ar    1  UNL1        0.0236
     49 H          -2.5880   -2.1180   -3.1750 H       1  UNL1        0.0660
     50 H          -2.1720   -0.4030   -3.0340 H       1  UNL1        0.0660
     51 H          -3.5390   -1.1080   -2.0820 H       1  UNL1        0.0660
     52 H           0.1230   -1.9850    0.3390 H       1  UNL1        0.0655
     53 H           0.7990   -0.4230    2.1180 H       1  UNL1        0.0639
     54 H           1.4900   -0.7350    4.7920 H       1  UNL1        0.0279
     55 H           1.3110   -2.2560    5.6760 H       1  UNL1        0.0279
     56 H           0.2990   -1.9560    4.2590 H       1  UNL1        0.0279
     57 H           0.1790   -2.0090    7.7450 H       1  UNL1        0.0621
     58 H          -1.5510   -0.9570    9.1510 H       1  UNL1        0.0618
     59 H          -3.0310    0.7880    8.2310 H       1  UNL1        0.0621
     60 H          -3.3840    1.5550    4.7050 H       1  UNL1        0.0279
     61 H          -2.5030    2.7750    5.6620 H       1  UNL1        0.0279
     62 H          -3.9260    1.9540    6.3320 H       1  UNL1        0.0279
     63 H           0.3360    4.3870    3.9020 H       1  UNL1        0.0667
     64 H           1.4340    6.3250    2.8540 H       1  UNL1        0.0832
     65 H           2.2760    5.3200   -1.2240 H       1  UNL1        0.1550
     66 H           0.4860    2.0510   -1.1960 H       1  UNL1        0.0637
     67 H           0.4030    0.5470   -3.0930 H       1  UNL1        0.0656
     68 H           3.2490    0.0210   -4.3480 H       1  UNL1        0.0697
     69 H           3.1790   -0.2500   -6.0900 H       1  UNL1        0.0697
     70 H           1.0070   -1.3150   -4.2350 H       1  UNL1        0.0310
     71 H           1.2860   -1.7550   -5.9040 H       1  UNL1        0.0310
     72 H           3.2350   -2.3130   -3.5840 H       1  UNL1        0.0428
     73 H           3.5210   -2.7030   -5.2800 H       1  UNL1        0.0428
     74 H           0.2570   -3.2070   -3.4870 H       1  UNL1        0.0439
     75 H           1.5450   -3.5440   -2.3250 H       1  UNL1        0.0439
     76 H          -0.1690   -5.5560   -3.8810 H       1  UNL1        0.0439
     77 H          -0.2320   -5.2100   -2.1490 H       1  UNL1        0.0439
     78 H           0.2930   -7.9510   -3.4870 H       1  UNL1        0.0391
     79 H           0.1190   -7.6170   -1.7510 H       1  UNL1        0.0391
     80 H           1.5810   -8.3920   -2.3460 H       1  UNL1        0.0391
     81 H           3.2330   -7.0510   -3.6200 H       1  UNL1        0.0439
     82 H           1.9500   -6.6810   -4.7830 H       1  UNL1        0.0439
     83 H           3.6770   -4.6870   -3.2190 H       1  UNL1        0.0439
     84 H           3.7420   -5.0390   -4.9500 H       1  UNL1        0.0439
     85 H           2.8420    5.3250   -5.7500 H       1  UNL1        0.0660
     86 H           2.9090    4.4230   -7.2700 H       1  UNL1        0.0660
     87 H           1.4190    4.3740   -6.3120 H       1  UNL1        0.0660
     88 H           2.9850    4.7640   -3.4190 H       1  UNL1        0.0674
     89 H          -3.6060    2.9480   -0.7380 H       1  UNL1        0.0660
     90 H          -1.8770    3.2940   -1.1230 H       1  UNL1        0.0660
     91 H          -2.8100    4.3970   -0.1040 H       1  UNL1        0.0660
     92 H          -2.8360    0.8110   -1.0310 H       1  UNL1        0.0691
@<TRIPOS>BOND
     1     1     2    1
     2     1    49    1
     3     1    50    1
     4     1    51    1
     5     2     3    1
     6     3     4   ar
     7     3    48   ar
     8     4     5   ar
     9     4    52    1
    10     5     6   ar
    11     5    53    1
    12     6     7    1
    13     6    45   ar
    14     7     8   am
    15     7    19    1
    16     8     9    2
    17     8    10    1
    18    10    11    1
    19    11    12   ar
    20    11    17   ar
    21    12    13    1
    22    12    14   ar
    23    13    54    1
    24    13    55    1
    25    13    56    1
    26    14    15   ar
    27    14    57    1
    28    15    16   ar
    29    15    58    1
    30    16    17   ar
    31    16    59    1
    32    17    18    1
    33    18    60    1
    34    18    61    1
    35    18    62    1
    36    19    20   ar
    37    19    44   ar
    38    20    21   ar
    39    20    63    1
    40    21    22   ar
    41    21    64    1
    42    22    23   ar
    43    23    24    1
    44    23    44   ar
    45    24    25    1
    46    24    65    1
    47    25    26   ar
    48    25    43   ar
    49    26    27   ar
    50    26    66    1
    51    27    28   ar
    52    27    67    1
    53    28    29    1
    54    28    40   ar
    55    29    30    1
    56    30    31    1
    57    30    68    1
    58    30    69    1
    59    31    32    1
    60    31    70    1
    61    31    71    1
    62    32    33    1
    63    32    72    1
    64    32    73    1
    65    33    34    1
    66    33    39    1
    67    34    35    1
    68    34    74    1
    69    34    75    1
    70    35    36    1
    71    35    76    1
    72    35    77    1
    73    36    37    1
    74    36    38    1
    75    37    78    1
    76    37    79    1
    77    37    80    1
    78    38    39    1
    79    38    81    1
    80    38    82    1
    81    39    83    1
    82    39    84    1
    83    40    41    1
    84    40    43   ar
    85    41    42    1
    86    42    85    1
    87    42    86    1
    88    42    87    1
    89    43    88    1
    90    45    46    1
    91    45    48   ar
    92    46    47    1
    93    47    89    1
    94    47    90    1
    95    47    91    1
    96    48    92    1
@<TRIPOS>MOLECULE
AD3CC00064048-I00-C00
 56 60 0 0 0
SMALL
GASTEIGER

@<TRIPOS>ATOM
      1 C           3.4220    0.6930   -2.7030 C.3     1  UNL1       -0.0391
      2 C           2.6560   -0.4990   -3.2140 C.ar    1  UNL1       -0.0427
      3 C           3.2510   -1.3290   -4.1770 C.ar    1  UNL1       -0.0575
      4 C           2.5730   -2.4410   -4.6780 C.ar    1  UNL1       -0.0494
      5 C           1.2920   -2.7480   -4.2150 C.ar    1  UNL1        0.0373
      6 C           0.6040   -3.9430   -4.7770 C.2     1  UNL1        0.2443
      7 O           0.8700   -4.3240   -5.9120 O.2     1  UNL1       -0.2702
      8 N          -0.2920   -4.5790   -3.9380 N.am    1  UNL1       -0.3085
      9 C          -0.9920   -5.7590   -4.3370 C.3     1  UNL1        0.0235
     10 C          -2.1340   -6.2880   -3.5130 C.3     1  UNL1       -0.0328
     11 C          -2.4010   -5.6680   -4.8530 C.3     1  UNL1       -0.0328
     12 C           0.6820   -1.9190   -3.2660 C.ar    1  UNL1       -0.0417
     13 C           1.3530   -0.7930   -2.7510 C.ar    1  UNL1       -0.0142
     14 C           0.6690    0.0450   -1.7570 C.ar    1  UNL1       -0.0170
     15 C           0.8660   -0.1630   -0.3890 C.ar    1  UNL1       -0.0533
     16 C           0.2050    0.6320    0.5530 C.ar    1  UNL1       -0.0501
     17 C          -0.6750    1.6650    0.1590 C.ar    1  UNL1        0.0254
     18 C          -1.3720    2.5030    1.0620 C.ar    1  UNL1        0.1519
     19 N          -1.1540    2.3480    2.4660 N.pl3   1  UNL1       -0.3061
     20 C          -0.0920    3.3170    2.8480 C.3     1  UNL1        0.0374
     21 C           0.1840    3.2180    4.3540 C.3     1  UNL1        0.0634
     22 O          -1.0040    3.4810    5.1150 O.3     1  UNL1       -0.3764
     23 C          -2.0280    2.5330    4.7750 C.3     1  UNL1        0.0660
     24 C          -2.3920    2.5880    3.2690 C.3     1  UNL1        0.0455
     25 C          -3.4500    1.5190    2.9820 C.3     1  UNL1       -0.0443
     26 N          -2.2170    3.4620    0.6080 N.ar    1  UNL1       -0.1335
     27 N          -2.4150    3.6500   -0.7270 N.ar    1  UNL1       -0.1553
     28 C          -1.7570    2.8690   -1.6040 C.ar    1  UNL1        0.0578
     29 C          -0.8790    1.8650   -1.2180 C.ar    1  UNL1        0.0058
     30 C          -0.2100    1.0600   -2.1610 C.ar    1  UNL1       -0.0447
     31 H           2.8680    1.6170   -2.8960 H       1  UNL1        0.0278
     32 H           3.6100    0.5940   -1.6290 H       1  UNL1        0.0278
     33 H           4.3940    0.7870   -3.1990 H       1  UNL1        0.0278
     34 H           4.2500   -1.1120   -4.5510 H       1  UNL1        0.0621
     35 H           3.0480   -3.0680   -5.4310 H       1  UNL1        0.0625
     36 H          -0.3240   -4.3200   -2.9610 H       1  UNL1        0.1493
     37 H          -0.3470   -6.4980   -4.8090 H       1  UNL1        0.0498
     38 H          -2.2350   -7.3640   -3.4250 H       1  UNL1        0.0284
     39 H          -2.4460   -5.7390   -2.6340 H       1  UNL1        0.0284
     40 H          -2.6740   -6.3180   -5.6760 H       1  UNL1        0.0284
     41 H          -2.8740   -4.6930   -4.8840 H       1  UNL1        0.0284
     42 H          -0.3340   -2.1190   -2.9340 H       1  UNL1        0.0631
     43 H           1.5360   -0.9490   -0.0440 H       1  UNL1        0.0624
     44 H           0.3730    0.4380    1.6110 H       1  UNL1        0.0625
     45 H          -0.4110    4.3420    2.6130 H       1  UNL1        0.0487
     46 H           0.8380    3.1090    2.3050 H       1  UNL1        0.0487
     47 H           0.9340    3.9600    4.6450 H       1  UNL1        0.0575
     48 H           0.5700    2.2270    4.6220 H       1  UNL1        0.0575
     49 H          -2.9080    2.7750    5.3820 H       1  UNL1        0.0578
     50 H          -1.6900    1.5310    5.0680 H       1  UNL1        0.0578
     51 H          -2.7950    3.5880    3.0600 H       1  UNL1        0.0520
     52 H          -4.3200    1.6510    3.6340 H       1  UNL1        0.0248
     53 H          -3.0500    0.5120    3.1450 H       1  UNL1        0.0248
     54 H          -3.8060    1.5680    1.9480 H       1  UNL1        0.0248
     55 H          -1.9680    3.0830   -2.6460 H       1  UNL1        0.0854
     56 H          -0.3720    1.2250   -3.2260 H       1  UNL1        0.0630
@<TRIPOS>BOND
     1     1     2    1
     2     1    31    1
     3     1    32    1
     4     1    33    1
     5     2     3   ar
     6     2    13   ar
     7     3     4   ar
     8     3    34    1
     9     4     5   ar
    10     4    35    1
    11     5     6    1
    12     5    12   ar
    13     6     7    2
    14     6     8   am
    15     8     9    1
    16     8    36    1
    17     9    10    1
    18     9    11    1
    19     9    37    1
    20    10    11    1
    21    10    38    1
    22    10    39    1
    23    11    40    1
    24    11    41    1
    25    12    13   ar
    26    12    42    1
    27    13    14    1
    28    14    15   ar
    29    14    30   ar
    30    15    16   ar
    31    15    43    1
    32    16    17   ar
    33    16    44    1
    34    17    18   ar
    35    17    29   ar
    36    18    19    1
    37    18    26   ar
    38    19    20    1
    39    19    24    1
    40    20    21    1
    41    20    45    1
    42    20    46    1
    43    21    22    1
    44    21    47    1
    45    21    48    1
    46    22    23    1
    47    23    24    1
    48    23    49    1
    49    23    50    1
    50    24    25    1
    51    24    51    1
    52    25    52    1
    53    25    53    1
    54    25    54    1
    55    26    27   ar
    56    27    28   ar
    57    28    29   ar
    58    28    55    1
    59    29    30   ar
    60    30    56    1
@<TRIPOS>MOLECULE
AD3CC00065300-I00-C00
 39 42 0 0 0
SMALL
GASTEIGER

@<TRIPOS>ATOM
      1 CL         -0.6650   -1.0920    7.6180 Cl      1  UNL1       -0.0835
      2 C          -0.4980   -0.7790    5.9350 C.ar    1  UNL1        0.0410
      3 C           0.4800    0.1050    5.4880 C.ar    1  UNL1       -0.0428
      4 C           0.6130    0.3580    4.1190 C.ar    1  UNL1       -0.0513
      5 C          -0.2250   -0.2720    3.1880 C.ar    1  UNL1       -0.0016
      6 C          -0.0730    0.0000    1.7590 C.ar    1  UNL1        0.0475
      7 C           0.2760    1.1610    1.0950 C.ar    1  UNL1       -0.0281
      8 C           0.2960    0.8980   -0.3040 C.ar    1  UNL1        0.0080
      9 C           0.6080    1.8290   -1.3780 C.ar    1  UNL1       -0.0148
     10 C          -0.0470    3.0670   -1.4360 C.ar    1  UNL1       -0.0539
     11 C           0.2430    3.9730   -2.4580 C.ar    1  UNL1       -0.0601
     12 C           1.1940    3.6510   -3.4260 C.ar    1  UNL1       -0.0477
     13 C           1.8520    2.4240   -3.3650 C.ar    1  UNL1        0.0185
     14 BR          3.1440    1.9900   -4.6750 Br      1  UNL1       -0.0503
     15 C           1.5690    1.5150   -2.3460 C.ar    1  UNL1       -0.0400
     16 C          -0.0440   -0.4390   -0.4760 C.ar    1  UNL1        0.0548
     17 C          -0.2300   -1.2630   -1.6710 C.ar    1  UNL1        0.0018
     18 C           0.4290   -2.4870   -1.8000 C.ar    1  UNL1       -0.0345
     19 C           0.2180   -3.2320   -2.9490 C.ar    1  UNL1        0.0282
     20 N          -0.5940   -2.8470   -3.9550 N.ar    1  UNL1       -0.2632
     21 C          -1.2160   -1.6570   -3.8110 C.ar    1  UNL1        0.0282
     22 C          -1.0700   -0.8410   -2.7020 C.ar    1  UNL1       -0.0345
     23 N          -0.2520   -0.9570    0.7860 N.ar    1  UNL1       -0.3537
     24 C          -1.2080   -1.1570    3.6570 C.ar    1  UNL1       -0.0513
     25 C          -1.3440   -1.4100    5.0260 C.ar    1  UNL1       -0.0428
     26 H           1.1420    0.5990    6.1940 H       1  UNL1        0.0632
     27 H           1.3880    1.0450    3.7860 H       1  UNL1        0.0625
     28 H           0.4950    2.1120    1.5660 H       1  UNL1        0.0645
     29 H          -0.7950    3.3280   -0.6900 H       1  UNL1        0.0624
     30 H          -0.2730    4.9290   -2.4980 H       1  UNL1        0.0618
     31 H           1.4150    4.3610   -4.2190 H       1  UNL1        0.0629
     32 H           2.0970    0.5660   -2.3040 H       1  UNL1        0.0635
     33 H           1.1080   -2.8510   -1.0370 H       1  UNL1        0.0639
     34 H           0.7160   -4.1860   -3.0960 H       1  UNL1        0.0830
     35 H          -1.8580   -1.3670   -4.6370 H       1  UNL1        0.0830
     36 H          -1.6030    0.1020   -2.6480 H       1  UNL1        0.0639
     37 H          -0.5130   -1.9160    0.9680 H       1  UNL1        0.1659
     38 H          -1.8950   -1.6420    2.9680 H       1  UNL1        0.0625
     39 H          -2.1140   -2.0930    5.3740 H       1  UNL1        0.0632
@<TRIPOS>BOND
     1     1     2    1
     2     2     3   ar
     3     2    25   ar
     4     3     4   ar
     5     3    26    1
     6     4     5   ar
     7     4    27    1
     8     5     6    1
     9     5    24   ar
    10     6     7   ar
    11     6    23   ar
    12     7     8   ar
    13     7    28    1
    14     8     9    1
    15     8    16   ar
    16     9    10   ar
    17     9    15   ar
    18    10    11   ar
    19    10    29    1
    20    11    12   ar
    21    11    30    1
    22    12    13   ar
    23    12    31    1
    24    13    14    1
    25    13    15   ar
    26    15    32    1
    27    16    17    1
    28    16    23   ar
    29    17    18   ar
    30    17    22   ar
    31    18    19   ar
    32    18    33    1
    33    19    20   ar
    34    19    34    1
    35    20    21   ar
    36    21    22   ar
    37    21    35    1
    38    22    36    1
    39    23    37    1
    40    24    25   ar
    41    24    38    1
    42    25    39    1
@<TRIPOS>MOLECULE
AD3CC00068170-I00-C00
 53 57 0 0 0
SMALL
GASTEIGER

@<TRIPOS>ATOM
      1 F          -7.3170   -0.6110   -1.7220 F       1  UNL1       -0.2055
      2 C          -6.0500   -0.8200   -1.3420 C.ar    1  UNL1        0.1234
      3 C          -5.5660   -2.1200   -1.2590 C.ar    1  UNL1       -0.0258
      4 C          -4.2440   -2.3380   -0.8650 C.ar    1  UNL1       -0.0498
      5 C          -3.4060   -1.2540   -0.5640 C.ar    1  UNL1        0.0027
      6 C          -2.0350   -1.5100   -0.1550 C.ar    1  UNL1        0.0982
      7 N          -1.7260   -2.5000    0.7450 N.ar    1  UNL1       -0.2351
      8 C          -0.4330   -2.4020    0.9330 C.ar    1  UNL1        0.0974
      9 N           0.1260   -1.4290    0.1500 N.ar    1  UNL1       -0.3252
     10 C           1.5460   -1.0870    0.1260 C.3     1  UNL1        0.0383
     11 C           2.4670   -2.3100   -0.0020 C.3     1  UNL1       -0.0194
     12 C           3.9300   -1.8730   -0.0010 C.3     1  UNL1       -0.0022
     13 N           4.2600   -1.0900    1.1900 N.3     1  UNL1       -0.3158
     14 C           3.4190    0.1030    1.3000 C.3     1  UNL1       -0.0022
     15 C           1.9370   -0.2510    1.3500 C.3     1  UNL1       -0.0194
     16 C          -0.8920   -0.8430   -0.5850 C.ar    1  UNL1        0.0953
     17 C          -0.7140    0.2220   -1.5650 C.ar    1  UNL1        0.0962
     18 C          -1.2450    0.1420   -2.8340 C.ar    1  UNL1       -0.0158
     19 C          -1.0250    1.2320   -3.6400 C.ar    1  UNL1        0.0350
     20 N          -0.3450    2.3210   -3.2450 N.ar    1  UNL1       -0.2030
     21 C           0.1130    2.3050   -1.9830 C.ar    1  UNL1        0.3240
     22 O           0.8450    3.4270   -1.6130 O.3     1  UNL1       -0.4207
     23 C           1.0420    3.6140   -0.2680 C.ar    1  UNL1        0.1669
     24 C           2.3580    3.7070    0.1890 C.ar    1  UNL1       -0.0163
     25 C           2.6080    3.9260    1.5450 C.ar    1  UNL1       -0.0581
     26 C           1.5450    4.0690    2.4410 C.ar    1  UNL1       -0.0588
     27 C           0.2300    4.0030    1.9790 C.ar    1  UNL1       -0.0228
     28 C          -0.0160    3.7860    0.6260 C.ar    1  UNL1        0.1655
     29 F          -1.2850    3.7590    0.1940 F       1  UNL1       -0.2016
     30 N          -0.0150    1.2800   -1.1220 N.ar    1  UNL1       -0.1930
     31 C          -3.9190    0.0500   -0.6340 C.ar    1  UNL1       -0.0498
     32 C          -5.2410    0.2660   -1.0300 C.ar    1  UNL1       -0.0258
     33 H          -6.2190   -2.9550   -1.4940 H       1  UNL1        0.0646
     34 H          -3.8670   -3.3560   -0.7850 H       1  UNL1        0.0625
     35 H           0.1390   -3.0100    1.6220 H       1  UNL1        0.1029
     36 H           1.7150   -0.4870   -0.7750 H       1  UNL1        0.0529
     37 H           2.2440   -2.8550   -0.9280 H       1  UNL1        0.0297
     38 H           2.3050   -3.0130    0.8240 H       1  UNL1        0.0297
     39 H           4.1550   -1.2910   -0.9020 H       1  UNL1        0.0425
     40 H           4.5750   -2.7580   -0.0320 H       1  UNL1        0.0425
     41 H           4.1430   -1.6670    2.0240 H       1  UNL1        0.1219
     42 H           3.6960    0.6480    2.2100 H       1  UNL1        0.0425
     43 H           3.6230    0.7760    0.4590 H       1  UNL1        0.0425
     44 H           1.7220   -0.8040    2.2740 H       1  UNL1        0.0297
     45 H           1.3400    0.6680    1.3940 H       1  UNL1        0.0297
     46 H          -1.8030   -0.7170   -3.1810 H       1  UNL1        0.0655
     47 H          -1.4030    1.2630   -4.6580 H       1  UNL1        0.0832
     48 H           3.1860    3.6030   -0.5080 H       1  UNL1        0.0655
     49 H           3.6330    3.9910    1.9040 H       1  UNL1        0.0619
     50 H           1.7420    4.2420    3.4960 H       1  UNL1        0.0618
     51 H          -0.6050    4.1280    2.6610 H       1  UNL1        0.0647
     52 H          -3.3020    0.9060   -0.3640 H       1  UNL1        0.0625
     53 H          -5.6440    1.2730   -1.0860 H       1  UNL1        0.0646
@<TRIPOS>BOND
     1     1     2    1
     2     2     3   ar
     3     2    32   ar
     4     3     4   ar
     5     3    33    1
     6     4     5   ar
     7     4    34    1
     8     5     6    1
     9     5    31   ar
    10     6     7   ar
    11     6    16   ar
    12     7     8   ar
    13     8     9   ar
    14     8    35    1
    15     9    10    1
    16     9    16   ar
    17    10    11    1
    18    10    15    1
    19    10    36    1
    20    11    12    1
    21    11    37    1
    22    11    38    1
    23    12    13    1
    24    12    39    1
    25    12    40    1
    26    13    14    1
    27    13    41    1
    28    14    15    1
    29    14    42    1
    30    14    43    1
    31    15    44    1
    32    15    45    1
    33    16    17    1
    34    17    18   ar
    35    17    30   ar
    36    18    19   ar
    37    18    46    1
    38    19    20   ar
    39    19    47    1
    40    20    21   ar
    41    21    22    1
    42    21    30   ar
    43    22    23    1
    44    23    24   ar
    45    23    28   ar
    46    24    25   ar
    47    24    48    1
    48    25    26   ar
    49    25    49    1
    50    26    27   ar
    51    26    50    1
    52    27    28   ar
    53    27    51    1
    54    28    29    1
    55    31    32   ar
    56    31    52    1
    57    32    53    1
@<TRIPOS>MOLECULE
AD3CC00068436-I00-C00
 46 48 0 0 0
SMALL
GASTEIGER

@<TRIPOS>ATOM
      1 C           1.0690   -0.8630    5.0100 C.3     1  UNL1       -0.0390
      2 C           0.3620   -0.0800    3.9390 C.ar    1  UNL1       -0.0382
      3 C          -0.1280    1.1990    4.2400 C.ar    1  UNL1       -0.0564
      4 C          -0.7880    1.9610    3.2710 C.ar    1  UNL1       -0.0402
      5 C          -0.9790    1.4610    1.9800 C.ar    1  UNL1        0.0344
      6 N          -1.6410    2.2890    1.0500 N.am    1  UNL1       -0.2815
      7 C          -1.7400    2.0800   -0.3150 C.2     1  UNL1        0.2483
      8 O          -1.1820    1.1970   -0.9560 O.2     1  UNL1       -0.2699
      9 C          -2.5610    3.0830   -1.0510 C.ar    1  UNL1        0.0376
     10 C          -3.7030    3.6590   -0.4810 C.ar    1  UNL1       -0.0496
     11 C          -4.4520    4.5870   -1.2080 C.ar    1  UNL1       -0.0605
     12 C          -4.0670    4.9370   -2.5030 C.ar    1  UNL1       -0.0501
     13 C          -2.9300    4.3630   -3.0930 C.ar    1  UNL1        0.0555
     14 C          -2.5330    4.7130   -4.5070 C.3     1  UNL1        0.4174
     15 F          -3.0570    3.8520   -5.4200 F       1  UNL1       -0.1659
     16 F          -1.1850    4.6970   -4.6990 F       1  UNL1       -0.1659
     17 F          -2.9450    5.9560   -4.8820 F       1  UNL1       -0.1659
     18 C          -2.1880    3.4230   -2.3590 C.ar    1  UNL1       -0.0380
     19 C          -0.5300    0.1750    1.6830 C.ar    1  UNL1       -0.0281
     20 C           0.1490   -0.5920    2.6460 C.ar    1  UNL1        0.0417
     21 C           0.6120   -1.9610    2.2680 C.2     1  UNL1        0.2486
     22 O           0.4410   -2.8890    3.0470 O.2     1  UNL1       -0.2698
     23 N           1.2230   -2.0400    1.0300 N.am    1  UNL1       -0.2790
     24 C           1.7440   -3.2060    0.4310 C.ar    1  UNL1        0.0704
     25 C           2.3310   -3.1320   -0.8170 C.ar    1  UNL1        0.0539
     26 N           2.8620   -4.1850   -1.4760 N.ar    1  UNL1       -0.2212
     27 C           2.8120   -5.3610   -0.8470 C.ar    1  UNL1        0.2126
     28 N           3.3290   -6.4590   -1.5010 N.pl3   1  UNL1       -0.3275
     29 N           2.2530   -5.5620    0.3490 N.ar    1  UNL1       -0.2212
     30 C           1.7330   -4.4750    0.9700 C.ar    1  UNL1        0.0539
     31 H           1.9920   -1.3070    4.6240 H       1  UNL1        0.0278
     32 H           0.4150   -1.6490    5.4010 H       1  UNL1        0.0278
     33 H           1.3570   -0.2180    5.8480 H       1  UNL1        0.0278
     34 H           0.0070    1.6170    5.2360 H       1  UNL1        0.0621
     35 H          -1.1400    2.9530    3.5440 H       1  UNL1        0.0636
     36 H          -1.9770    3.1750    1.4060 H       1  UNL1        0.1551
     37 H          -4.0440    3.3720    0.5100 H       1  UNL1        0.0625
     38 H          -5.3450    5.0280   -0.7700 H       1  UNL1        0.0618
     39 H          -4.6670    5.6580   -3.0600 H       1  UNL1        0.0623
     40 H          -1.3120    2.9540   -2.8080 H       1  UNL1        0.0631
     41 H          -0.7370   -0.2670    0.7120 H       1  UNL1        0.0644
     42 H           1.3290   -1.1780    0.5050 H       1  UNL1        0.1552
     43 H           2.3990   -2.1930   -1.3580 H       1  UNL1        0.0850
     44 H           2.8810   -7.2950   -1.1550 H       1  UNL1        0.1452
     45 H           3.3110   -6.2980   -2.4980 H       1  UNL1        0.1452
     46 H           1.3030   -4.6960    1.9400 H       1  UNL1        0.0850
@<TRIPOS>BOND
     1     1     2    1
     2     1    31    1
     3     1    32    1
     4     1    33    1
     5     2     3   ar
     6     2    20   ar
     7     3     4   ar
     8     3    34    1
     9     4     5   ar
    10     4    35    1
    11     5     6    1
    12     5    19   ar
    13     6     7   am
    14     6    36    1
    15     7     8    2
    16     7     9    1
    17     9    10   ar
    18     9    18   ar
    19    10    11   ar
    20    10    37    1
    21    11    12   ar
    22    11    38    1
    23    12    13   ar
    24    12    39    1
    25    13    14    1
    26    13    18   ar
    27    14    15    1
    28    14    16    1
    29    14    17    1
    30    18    40    1
    31    19    20   ar
    32    19    41    1
    33    20    21    1
    34    21    22    2
    35    21    23   am
    36    23    24    1
    37    23    42    1
    38    24    25   ar
    39    24    30   ar
    40    25    26   ar
    41    25    43    1
    42    26    27   ar
    43    27    28    1
    44    27    29   ar
    45    28    44    1
    46    28    45    1
    47    29    30   ar
    48    30    46    1
@<TRIPOS>MOLECULE
AD3CC00068871-I00-C00
 49 52 0 0 0
SMALL
GASTEIGER

@<TRIPOS>ATOM
      1 C           1.7520   -4.5980    1.9920 C.3     1  UNL1       -0.0639
      2 C           1.0440   -4.6380    0.6470 C.3     1  UNL1       -0.0402
      3 C           0.9940   -3.2550   -0.0020 C.3     1  UNL1        0.0115
      4 N           0.3000   -3.3510   -1.2750 N.pl3   1  UNL1       -0.3135
      5 C           0.2710   -2.1650   -1.9970 C.ar    1  UNL1        0.2157
      6 N           0.4030   -2.2920   -3.3210 N.ar    1  UNL1       -0.2229
      7 C           0.3550   -1.1630   -4.0500 C.ar    1  UNL1        0.0333
      8 C           0.1860    0.0830   -3.5030 C.ar    1  UNL1       -0.0159
      9 C           0.0750    0.1140   -2.1320 C.ar    1  UNL1        0.0945
     10 C          -0.1360    1.3490   -1.3890 C.ar    1  UNL1        0.0956
     11 C           0.3080    2.6670   -1.5500 C.ar    1  UNL1        0.0985
     12 C           1.2520    3.1570   -2.5400 C.ar    1  UNL1        0.0027
     13 C           0.9560    4.3290   -3.2500 C.ar    1  UNL1       -0.0498
     14 C           1.8480    4.8210   -4.2040 C.ar    1  UNL1       -0.0258
     15 C           3.0410    4.1470   -4.4370 C.ar    1  UNL1        0.1234
     16 F           3.8980    4.6170   -5.3530 F       1  UNL1       -0.2055
     17 C           3.3620    2.9940   -3.7290 C.ar    1  UNL1       -0.0258
     18 C           2.4700    2.5010   -2.7740 C.ar    1  UNL1       -0.0498
     19 N          -0.2770    3.5290   -0.6320 N.ar    1  UNL1       -0.2316
     20 C          -0.9990    2.7460    0.1210 C.ar    1  UNL1        0.1112
     21 N          -0.9310    1.4510   -0.2880 N.ar    1  UNL1       -0.3205
     22 C          -1.7470    0.5520    0.5180 C.3     1  UNL1        0.0597
     23 C          -3.0030    0.0840   -0.2210 C.3     1  UNL1        0.0650
     24 O          -3.9190    1.1490   -0.4730 O.3     1  UNL1       -0.3930
     25 C          -2.0520    1.4400    1.7540 C.3     1  UNL1       -0.0231
     26 C          -1.8840    2.9070    1.2900 C.3     1  UNL1        0.0076
     27 N           0.1070   -0.9950   -1.3700 N.ar    1  UNL1       -0.2130
     28 H           1.2360   -3.9290    2.6870 H       1  UNL1        0.0230
     29 H           2.7840   -4.2510    1.8820 H       1  UNL1        0.0230
     30 H           1.7760   -5.5980    2.4380 H       1  UNL1        0.0230
     31 H           1.5620   -5.3440   -0.0130 H       1  UNL1        0.0278
     32 H           0.0260   -5.0230    0.7850 H       1  UNL1        0.0278
     33 H           2.0170   -2.8840   -0.1500 H       1  UNL1        0.0462
     34 H           0.4720   -2.5640    0.6710 H       1  UNL1        0.0462
     35 H           0.6750   -4.0420   -1.9170 H       1  UNL1        0.1489
     36 H           0.4530   -1.2970   -5.1230 H       1  UNL1        0.0831
     37 H           0.1320    0.9680   -4.1220 H       1  UNL1        0.0655
     38 H           0.0280    4.8640   -3.0530 H       1  UNL1        0.0625
     39 H           1.6240    5.7270   -4.7570 H       1  UNL1        0.0646
     40 H           4.3070    2.4940   -3.9160 H       1  UNL1        0.0646
     41 H           2.7400    1.6140   -2.2040 H       1  UNL1        0.0625
     42 H          -1.1290   -0.3020    0.8110 H       1  UNL1        0.0551
     43 H          -3.5320   -0.6520    0.3930 H       1  UNL1        0.0578
     44 H          -2.7640   -0.3940   -1.1760 H       1  UNL1        0.0578
     45 H          -3.5300    1.7140   -1.1650 H       1  UNL1        0.2095
     46 H          -3.0350    1.2520    2.1970 H       1  UNL1        0.0290
     47 H          -1.3040    1.2310    2.5300 H       1  UNL1        0.0290
     48 H          -2.8450    3.3360    0.9900 H       1  UNL1        0.0344
     49 H          -1.4400    3.5260    2.0730 H       1  UNL1        0.0344
@<TRIPOS>BOND
     1     1     2    1
     2     1    28    1
     3     1    29    1
     4     1    30    1
     5     2     3    1
     6     2    31    1
     7     2    32    1
     8     3     4    1
     9     3    33    1
    10     3    34    1
    11     4     5    1
    12     4    35    1
    13     5     6   ar
    14     5    27   ar
    15     6     7   ar
    16     7     8   ar
    17     7    36    1
    18     8     9   ar
    19     8    37    1
    20     9    10    1
    21     9    27   ar
    22    10    11   ar
    23    10    21   ar
    24    11    12    1
    25    11    19   ar
    26    12    13   ar
    27    12    18   ar
    28    13    14   ar
    29    13    38    1
    30    14    15   ar
    31    14    39    1
    32    15    16    1
    33    15    17   ar
    34    17    18   ar
    35    17    40    1
    36    18    41    1
    37    19    20   ar
    38    20    21   ar
    39    20    26    1
    40    21    22    1
    41    22    23    1
    42    22    25    1
    43    22    42    1
    44    23    24    1
    45    23    43    1
    46    23    44    1
    47    24    45    1
    48    25    26    1
    49    25    46    1
    50    25    47    1
    51    26    48    1
    52    26    49    1
@<TRIPOS>MOLECULE
AD3CC00069993-I00-C00
 54 57 0 0 0
SMALL
GASTEIGER

@<TRIPOS>ATOM
      1 C          -6.2880   -3.4840   -4.6670 C.3     1  UNL1        0.0003
      2 N          -5.8870   -2.0980   -4.5920 N.pl3   1  UNL1       -0.3165
      3 C          -4.6060   -1.8970   -4.0970 C.ar    1  UNL1        0.2155
      4 N          -3.9400   -0.8690   -4.6350 N.ar    1  UNL1       -0.2223
      5 C          -2.7000   -0.6400   -4.1640 C.ar    1  UNL1        0.0404
      6 C          -2.0960   -1.4030   -3.1800 C.ar    1  UNL1        0.0192
      7 C          -0.7980   -1.1610   -2.6840 C.ar    1  UNL1       -0.0434
      8 C          -0.2550   -1.9810   -1.6880 C.ar    1  UNL1       -0.0169
      9 C           1.0910   -1.7310   -1.1580 C.ar    1  UNL1       -0.0142
     10 C           1.2600   -0.7360   -0.1770 C.ar    1  UNL1       -0.0416
     11 C           2.5230   -0.4640    0.3640 C.ar    1  UNL1        0.0376
     12 C           2.7190    0.5850    1.4040 C.2     1  UNL1        0.2483
     13 O           3.7500    1.2440    1.3680 O.2     1  UNL1       -0.2699
     14 N           1.7000    0.6720    2.3380 N.am    1  UNL1       -0.2813
     15 C           1.5870    1.5750    3.4250 C.ar    1  UNL1        0.0372
     16 C           2.5410    2.5680    3.6530 C.ar    1  UNL1       -0.0388
     17 C           2.4310    3.4310    4.7410 C.ar    1  UNL1       -0.0411
     18 C           1.3840    3.2940    5.6500 C.ar    1  UNL1        0.0530
     19 CL          1.3350    4.4540    6.9310 Cl      1  UNL1       -0.0830
     20 C           0.4210    2.2850    5.4850 C.ar    1  UNL1        0.0777
     21 C          -0.6740    2.1000    6.5150 C.3     1  UNL1        0.4191
     22 F          -1.0920    0.8030    6.6240 F       1  UNL1       -0.1658
     23 F          -0.3340    2.4370    7.7900 F       1  UNL1       -0.1658
     24 F          -1.7900    2.8200    6.2160 F       1  UNL1       -0.1658
     25 C           0.4790    1.4700    4.3090 C.ar    1  UNL1       -0.0162
     26 C          -0.6390    0.4900    4.0180 C.3     1  UNL1       -0.0374
     27 C           3.6380   -1.1670   -0.0960 C.ar    1  UNL1       -0.0493
     28 C           3.4880   -2.1550   -1.0680 C.ar    1  UNL1       -0.0575
     29 C           2.2230   -2.4480   -1.6070 C.ar    1  UNL1       -0.0427
     30 C           2.1110   -3.5220   -2.6570 C.3     1  UNL1       -0.0391
     31 C          -1.0360   -3.0350   -1.2020 C.ar    1  UNL1       -0.0520
     32 C          -2.3240   -3.2600   -1.7060 C.ar    1  UNL1       -0.0350
     33 C          -2.8730   -2.4550   -2.6950 C.ar    1  UNL1        0.0761
     34 N          -4.1080   -2.7030   -3.1480 N.ar    1  UNL1       -0.2145
     35 H          -7.2720   -3.5470   -5.1420 H       1  UNL1        0.0426
     36 H          -5.5900   -4.0750   -5.2700 H       1  UNL1        0.0426
     37 H          -6.3790   -3.9340   -3.6720 H       1  UNL1        0.0426
     38 H          -5.9290   -1.5840   -5.4650 H       1  UNL1        0.1486
     39 H          -2.1930    0.2060   -4.6180 H       1  UNL1        0.0837
     40 H          -0.2110   -0.3340   -3.0810 H       1  UNL1        0.0631
     41 H           0.3930   -0.1580    0.1400 H       1  UNL1        0.0631
     42 H           1.0060   -0.0600    2.2900 H       1  UNL1        0.1551
     43 H           3.3910    2.7120    2.9930 H       1  UNL1        0.0637
     44 H           3.1800    4.2090    4.8720 H       1  UNL1        0.0633
     45 H          -1.5950    0.8340    4.4220 H       1  UNL1        0.0278
     46 H          -0.3970   -0.4930    4.4340 H       1  UNL1        0.0278
     47 H          -0.8240    0.3950    2.9440 H       1  UNL1        0.0278
     48 H           4.6260   -0.9470    0.3030 H       1  UNL1        0.0625
     49 H           4.3700   -2.6940   -1.4090 H       1  UNL1        0.0621
     50 H           3.0950   -3.9050   -2.9460 H       1  UNL1        0.0278
     51 H           1.6390   -3.1270   -3.5630 H       1  UNL1        0.0278
     52 H           1.5270   -4.3670   -2.2770 H       1  UNL1        0.0278
     53 H          -0.6490   -3.6940   -0.4260 H       1  UNL1        0.0624
     54 H          -2.9140   -4.0850   -1.3140 H       1  UNL1        0.0639
@<TRIPOS>BOND
     1     1     2    1
     2     1    35    1
     3     1    36    1
     4     1    37    1
     5     2     3    1
     6     2    38    1
     7     3     4   ar
     8     3    34   ar
     9     4     5   ar
    10     5     6   ar
    11     5    39    1
    12     6     7   ar
    13     6    33   ar
    14     7     8   ar
    15     7    40    1
    16     8     9    1
    17     8    31   ar
    18     9    10   ar
    19     9    29   ar
    20    10    11   ar
    21    10    41    1
    22    11    12    1
    23    11    27   ar
    24    12    13    2
    25    12    14   am
    26    14    15    1
    27    14    42    1
    28    15    16   ar
    29    15    25   ar
    30    16    17   ar
    31    16    43    1
    32    17    18   ar
    33    17    44    1
    34    18    19    1
    35    18    20   ar
    36    20    21    1
    37    20    25   ar
    38    21    22    1
    39    21    23    1
    40    21    24    1
    41    25    26    1
    42    26    45    1
    43    26    46    1
    44    26    47    1
    45    27    28   ar
    46    27    48    1
    47    28    29   ar
    48    28    49    1
    49    29    30    1
    50    30    50    1
    51    30    51    1
    52    30    52    1
    53    31    32   ar
    54    31    53    1
    55    32    33   ar
    56    32    54    1
    57    33    34   ar
@<TRIPOS>MOLECULE
AD3CC00069994-I00-C00
 70 74 0 0 0
SMALL
GASTEIGER

@<TRIPOS>ATOM
      1 C          -5.1920    2.4380    5.9580 C.3     1  UNL1        0.0003
      2 N          -4.1900    3.0550    5.1190 N.pl3   1  UNL1       -0.3165
      3 C          -3.3240    2.1600    4.5070 C.ar    1  UNL1        0.2155
      4 N          -2.0680    2.5940    4.3550 N.ar    1  UNL1       -0.2223
      5 C          -1.2080    1.7520    3.7520 C.ar    1  UNL1        0.0404
      6 C          -1.5520    0.4900    3.3010 C.ar    1  UNL1        0.0192
      7 C          -0.6510   -0.3900    2.6680 C.ar    1  UNL1       -0.0434
      8 C          -1.0770   -1.6510    2.2350 C.ar    1  UNL1       -0.0169
      9 C          -0.1500   -2.5610    1.5500 C.ar    1  UNL1       -0.0142
     10 C          -0.0230   -2.4660    0.1520 C.ar    1  UNL1       -0.0416
     11 C           0.8670   -3.2880   -0.5520 C.ar    1  UNL1        0.0376
     12 C           1.0500   -3.1770   -2.0310 C.2     1  UNL1        0.2484
     13 O           1.3830   -4.1740   -2.6610 O.2     1  UNL1       -0.2699
     14 N           0.8610   -1.9120   -2.5420 N.am    1  UNL1       -0.2785
     15 C           0.9650   -1.4750   -3.8790 C.ar    1  UNL1        0.0764
     16 C           1.2440   -2.3150   -4.9560 C.ar    1  UNL1       -0.0253
     17 C           1.3410   -1.7950   -6.2580 C.ar    1  UNL1        0.0568
     18 C           1.6320   -2.7190   -7.4160 C.3     1  UNL1        0.4175
     19 F           0.5720   -3.5120   -7.7290 F       1  UNL1       -0.1659
     20 F           1.9510   -2.0560   -8.5640 F       1  UNL1       -0.1659
     21 F           2.6760   -3.5580   -7.1750 F       1  UNL1       -0.1659
     22 C           1.1340   -0.4210   -6.4630 C.ar    1  UNL1       -0.0465
     23 C           0.8510    0.4270   -5.3890 C.ar    1  UNL1       -0.0175
     24 C           0.7800   -0.0940   -4.0980 C.ar    1  UNL1        0.1420
     25 O           0.4870    0.6470   -2.9790 O.3     1  UNL1       -0.4869
     26 C           1.0030    1.9860   -2.8990 C.3     1  UNL1        0.1026
     27 C           0.3570    2.6300   -1.6670 C.3     1  UNL1       -0.0029
     28 C           0.8410    1.9730   -0.3720 C.3     1  UNL1        0.0019
     29 N           2.3040    2.0260   -0.2680 N.3     1  UNL1       -0.3051
     30 C           2.7580    1.4350    0.9900 C.3     1  UNL1       -0.0128
     31 C           2.9500    1.3590   -1.4070 C.3     1  UNL1        0.0019
     32 C           2.5260    1.9970   -2.7310 C.3     1  UNL1       -0.0029
     33 C           1.6090   -4.2470    0.1420 C.ar    1  UNL1       -0.0493
     34 C           1.4860   -4.3610    1.5270 C.ar    1  UNL1       -0.0575
     35 C           0.6190   -3.5200    2.2450 C.ar    1  UNL1       -0.0427
     36 C           0.5190   -3.6770    3.7390 C.3     1  UNL1       -0.0391
     37 C          -2.4120   -2.0080    2.4500 C.ar    1  UNL1       -0.0520
     38 C          -3.2920   -1.1220    3.0840 C.ar    1  UNL1       -0.0350
     39 C          -2.8830    0.1330    3.5160 C.ar    1  UNL1        0.0761
     40 N          -3.7560    0.9530    4.1150 N.ar    1  UNL1       -0.2145
     41 H          -4.7390    1.8120    6.7350 H       1  UNL1        0.0426
     42 H          -5.7720    3.2200    6.4590 H       1  UNL1        0.0426
     43 H          -5.8970    1.8370    5.3730 H       1  UNL1        0.0426
     44 H          -3.6010    3.7410    5.5770 H       1  UNL1        0.1486
     45 H          -0.1990    2.1410    3.6390 H       1  UNL1        0.0837
     46 H           0.3830   -0.0890    2.5140 H       1  UNL1        0.0631
     47 H          -0.6510   -1.7540   -0.3790 H       1  UNL1        0.0631
     48 H           0.6770   -1.1510   -1.8980 H       1  UNL1        0.1552
     49 H           1.3910   -3.3830   -4.8110 H       1  UNL1        0.0643
     50 H           1.1850   -0.0050   -7.4680 H       1  UNL1        0.0624
     51 H           0.6710    1.4770   -5.5920 H       1  UNL1        0.0655
     52 H           0.7010    2.5690   -3.7750 H       1  UNL1        0.0733
     53 H          -0.7330    2.5320   -1.7230 H       1  UNL1        0.0313
     54 H           0.5920    3.7020   -1.6450 H       1  UNL1        0.0313
     55 H           0.3910    2.5120    0.4710 H       1  UNL1        0.0428
     56 H           0.4820    0.9370   -0.3190 H       1  UNL1        0.0428
     57 H           2.3100    1.9540    1.8450 H       1  UNL1        0.0391
     58 H           3.8440    1.5390    1.0950 H       1  UNL1        0.0391
     59 H           2.5060    0.3710    1.0620 H       1  UNL1        0.0391
     60 H           4.0390    1.4530   -1.3190 H       1  UNL1        0.0428
     61 H           2.7190    0.2860   -1.4150 H       1  UNL1        0.0428
     62 H           2.8880    3.0320   -2.7680 H       1  UNL1        0.0313
     63 H           3.0140    1.4580   -3.5510 H       1  UNL1        0.0313
     64 H           2.2890   -4.9060   -0.3950 H       1  UNL1        0.0625
     65 H           2.0760   -5.1150    2.0450 H       1  UNL1        0.0621
     66 H           1.2140   -4.4380    4.1100 H       1  UNL1        0.0278
     67 H          -0.4910   -3.9880    4.0230 H       1  UNL1        0.0278
     68 H           0.7680   -2.7360    4.2410 H       1  UNL1        0.0278
     69 H          -2.7800   -2.9790    2.1230 H       1  UNL1        0.0624
     70 H          -4.3280   -1.4190    3.2400 H       1  UNL1        0.0639
@<TRIPOS>BOND
     1     1     2    1
     2     1    41    1
     3     1    42    1
     4     1    43    1
     5     2     3    1
     6     2    44    1
     7     3     4   ar
     8     3    40   ar
     9     4     5   ar
    10     5     6   ar
    11     5    45    1
    12     6     7   ar
    13     6    39   ar
    14     7     8   ar
    15     7    46    1
    16     8     9    1
    17     8    37   ar
    18     9    10   ar
    19     9    35   ar
    20    10    11   ar
    21    10    47    1
    22    11    12    1
    23    11    33   ar
    24    12    13    2
    25    12    14   am
    26    14    15    1
    27    14    48    1
    28    15    16   ar
    29    15    24   ar
    30    16    17   ar
    31    16    49    1
    32    17    18    1
    33    17    22   ar
    34    18    19    1
    35    18    20    1
    36    18    21    1
    37    22    23   ar
    38    22    50    1
    39    23    24   ar
    40    23    51    1
    41    24    25    1
    42    25    26    1
    43    26    27    1
    44    26    32    1
    45    26    52    1
    46    27    28    1
    47    27    53    1
    48    27    54    1
    49    28    29    1
    50    28    55    1
    51    28    56    1
    52    29    30    1
    53    29    31    1
    54    30    57    1
    55    30    58    1
    56    30    59    1
    57    31    32    1
    58    31    60    1
    59    31    61    1
    60    32    62    1
    61    32    63    1
    62    33    34   ar
    63    33    64    1
    64    34    35   ar
    65    34    65    1
    66    35    36    1
    67    36    66    1
    68    36    67    1
    69    36    68    1
    70    37    38   ar
    71    37    69    1
    72    38    39   ar
    73    38    70    1
    74    39    40   ar
@<TRIPOS>MOLECULE
AD3CC00070474-I00-C00
 64 67 0 0 0
SMALL
GASTEIGER

@<TRIPOS>ATOM
      1 C          -2.6240    3.6910    2.9440 C.3     1  UNL1       -0.0127
      2 N          -2.8090    2.7860    4.0860 N.3     1  UNL1       -0.3039
      3 C          -1.9530    3.2450    5.1870 C.3     1  UNL1       -0.0127
      4 C          -2.5400    1.3630    3.7190 C.3     1  UNL1        0.0255
      5 C          -2.7770    0.4160    4.9250 C.3     1  UNL1       -0.0345
      6 C          -2.5930   -1.0570    4.5540 C.3     1  UNL1       -0.0358
      7 C          -3.4740   -1.4460    3.3730 C.3     1  UNL1        0.0123
      8 N          -3.1430   -0.5660    2.2460 N.pl3   1  UNL1       -0.3270
      9 C          -3.7520   -0.9910    1.0320 C.ar    1  UNL1        0.0513
     10 C          -5.1400   -1.0620    0.8640 C.ar    1  UNL1       -0.0383
     11 C          -5.6860   -1.4800   -0.3510 C.ar    1  UNL1       -0.0483
     12 C          -4.8530   -1.8310   -1.4250 C.ar    1  UNL1        0.0567
     13 C          -5.4300   -2.2950   -2.7400 C.3     1  UNL1        0.4175
     14 F          -4.9090   -1.6340   -3.8100 F       1  UNL1       -0.1659
     15 F          -6.7810   -2.1250   -2.8250 F       1  UNL1       -0.1659
     16 F          -5.2090   -3.6190   -2.9690 F       1  UNL1       -0.1659
     17 C          -3.4590   -1.7640   -1.2610 C.ar    1  UNL1       -0.0270
     18 C          -2.9090   -1.3470   -0.0480 C.ar    1  UNL1        0.0554
     19 N          -1.5240   -1.2490    0.2050 N.am    1  UNL1       -0.2799
     20 C          -0.4710   -1.5260   -0.6350 C.2     1  UNL1        0.2511
     21 O          -0.5710   -1.9170   -1.7940 O.2     1  UNL1       -0.2698
     22 C           0.9020   -1.3320   -0.0760 C.ar    1  UNL1        0.0733
     23 C           2.0010   -1.6490   -0.8940 C.ar    1  UNL1       -0.0314
     24 C           3.3080   -1.4900   -0.4240 C.ar    1  UNL1        0.0262
     25 C           4.4160   -1.8190   -1.2660 C.1     1  UNL1       -0.0609
     26 C           5.3450   -2.0970   -1.9750 C.1     1  UNL1       -0.0580
     27 C           6.4470   -2.4280   -2.8150 C.ar    1  UNL1        0.0615
     28 C           6.4950   -3.5890   -3.5510 C.ar    1  UNL1        0.0480
     29 N           7.5300   -3.9270   -4.3520 N.ar    1  UNL1       -0.2219
     30 C           8.5530   -3.0670   -4.3970 C.ar    1  UNL1        0.2125
     31 N           9.6130   -3.3820   -5.2180 N.pl3   1  UNL1       -0.3275
     32 N           8.6030   -1.9030   -3.7410 N.ar    1  UNL1       -0.2219
     33 C           7.5450   -1.6110   -2.9530 C.ar    1  UNL1        0.0480
     34 C           3.5320   -1.0110    0.8690 C.ar    1  UNL1       -0.0436
     35 C           2.4490   -0.6920    1.6870 C.ar    1  UNL1       -0.0245
     36 C           1.1470   -0.8530    1.2130 C.ar    1  UNL1        0.1356
     37 F           0.1420   -0.5290    2.0400 F       1  UNL1       -0.2047
     38 C          -3.4140    0.8630    2.5240 C.3     1  UNL1        0.0278
     39 H          -3.3790    3.5180    2.1720 H       1  UNL1        0.0391
     40 H          -2.7590    4.7360    3.2490 H       1  UNL1        0.0391
     41 H          -1.6270    3.5930    2.4980 H       1  UNL1        0.0391
     42 H          -2.2010    2.7390    6.1240 H       1  UNL1        0.0391
     43 H          -0.8890    3.0950    4.9710 H       1  UNL1        0.0391
     44 H          -2.1130    4.3110    5.3860 H       1  UNL1        0.0391
     45 H          -1.4860    1.2650    3.4200 H       1  UNL1        0.0478
     46 H          -2.0770    0.6360    5.7380 H       1  UNL1        0.0281
     47 H          -3.7900    0.5650    5.3190 H       1  UNL1        0.0281
     48 H          -1.5390   -1.2360    4.3030 H       1  UNL1        0.0281
     49 H          -2.8310   -1.6870    5.4180 H       1  UNL1        0.0281
     50 H          -4.5320   -1.3620    3.6540 H       1  UNL1        0.0464
     51 H          -3.2740   -2.4940    3.1140 H       1  UNL1        0.0464
     52 H          -5.8100   -0.7890    1.6760 H       1  UNL1        0.0637
     53 H          -6.7690   -1.5290   -0.4580 H       1  UNL1        0.0624
     54 H          -2.8240   -2.0420   -2.0970 H       1  UNL1        0.0642
     55 H          -1.3410   -0.9310    1.1570 H       1  UNL1        0.1552
     56 H           1.8330   -2.0230   -1.9030 H       1  UNL1        0.0638
     57 H           5.6830   -4.3120   -3.5260 H       1  UNL1        0.0844
     58 H          10.0880   -2.5370   -5.5030 H       1  UNL1        0.1452
     59 H           9.3060   -4.0120   -5.9460 H       1  UNL1        0.1452
     60 H           7.6190   -0.6650   -2.4240 H       1  UNL1        0.0844
     61 H           4.5460   -0.8850    1.2440 H       1  UNL1        0.0631
     62 H           2.6100   -0.3180    2.6940 H       1  UNL1        0.0647
     63 H          -3.1670    1.4400    1.6250 H       1  UNL1        0.0479
     64 H          -4.4770    1.0230    2.7500 H       1  UNL1        0.0479
@<TRIPOS>BOND
     1     1     2    1
     2     1    39    1
     3     1    40    1
     4     1    41    1
     5     2     3    1
     6     2     4    1
     7     3    42    1
     8     3    43    1
     9     3    44    1
    10     4     5    1
    11     4    38    1
    12     4    45    1
    13     5     6    1
    14     5    46    1
    15     5    47    1
    16     6     7    1
    17     6    48    1
    18     6    49    1
    19     7     8    1
    20     7    50    1
    21     7    51    1
    22     8     9    1
    23     8    38    1
    24     9    10   ar
    25     9    18   ar
    26    10    11   ar
    27    10    52    1
    28    11    12   ar
    29    11    53    1
    30    12    13    1
    31    12    17   ar
    32    13    14    1
    33    13    15    1
    34    13    16    1
    35    17    18   ar
    36    17    54    1
    37    18    19    1
    38    19    20   am
    39    19    55    1
    40    20    21    2
    41    20    22    1
    42    22    23   ar
    43    22    36   ar
    44    23    24   ar
    45    23    56    1
    46    24    25    1
    47    24    34   ar
    48    25    26    3
    49    26    27    1
    50    27    28   ar
    51    27    33   ar
    52    28    29   ar
    53    28    57    1
    54    29    30   ar
    55    30    31    1
    56    30    32   ar
    57    31    58    1
    58    31    59    1
    59    32    33   ar
    60    33    60    1
    61    34    35   ar
    62    34    61    1
    63    35    36   ar
    64    35    62    1
    65    36    37    1
    66    38    63    1
    67    38    64    1
@<TRIPOS>MOLECULE
AD3CC00074442-I00-C00
 45 47 0 0 0
SMALL
GASTEIGER

@<TRIPOS>ATOM
      1 C           1.4310    1.4220    1.0410 C.3     1  UNL1        0.0168
      2 N           0.8830    1.2240   -0.2900 N.ar    1  UNL1       -0.2928
      3 C           1.6830    1.4650   -1.4000 C.ar    1  UNL1        0.2951
      4 O           2.8390    1.8810   -1.3180 O.2     1  UNL1       -0.2636
      5 C           1.0730    1.2070   -2.7560 C.ar    1  UNL1        0.1934
      6 O           1.8170    1.4070   -3.9170 O.3     1  UNL1       -0.4477
      7 C           3.0440    0.7930   -4.0130 C.ar    1  UNL1        0.1639
      8 C           4.0820    1.5480   -4.5650 C.ar    1  UNL1       -0.0137
      9 C           5.3470    0.9770   -4.7180 C.ar    1  UNL1       -0.0228
     10 C           5.5570   -0.3450   -4.3340 C.ar    1  UNL1        0.1264
     11 F           6.7710   -0.8890   -4.4880 F       1  UNL1       -0.2054
     12 C           4.5280   -1.1120   -3.8040 C.ar    1  UNL1        0.0125
     13 C           3.2710   -0.5390   -3.6520 C.ar    1  UNL1        0.1681
     14 F           2.2750   -1.2970   -3.1690 F       1  UNL1       -0.2015
     15 C          -0.2140    0.8520   -2.8590 C.ar    1  UNL1       -0.0018
     16 C          -1.0060    0.6400   -1.6620 C.ar    1  UNL1        0.0394
     17 C          -2.3210    0.2440   -1.6960 C.ar    1  UNL1        0.0419
     18 N          -3.0630    0.0330   -0.5940 N.ar    1  UNL1       -0.2222
     19 C          -2.4710    0.2300    0.5890 C.ar    1  UNL1        0.2175
     20 N          -3.2890    0.0170    1.6750 N.pl3   1  UNL1       -0.3062
     21 C          -2.8220   -0.5350    2.9590 C.3     1  UNL1        0.0521
     22 C          -4.0950   -0.9730    3.7200 C.3     1  UNL1       -0.0418
     23 C          -1.9360   -1.7740    2.7580 C.3     1  UNL1       -0.0418
     24 C          -2.1270    0.5520    3.8230 C.3     1  UNL1        0.0649
     25 O          -0.8080    0.8620    3.3900 O.3     1  UNL1       -0.3929
     26 N          -1.1990    0.6250    0.7300 N.ar    1  UNL1       -0.1964
     27 C          -0.4750    0.8180   -0.3980 C.ar    1  UNL1        0.1484
     28 H           1.3390    0.4940    1.6140 H       1  UNL1        0.0457
     29 H           2.4900    1.6910    1.0070 H       1  UNL1        0.0457
     30 H           0.8900    2.2340    1.5360 H       1  UNL1        0.0457
     31 H           3.9110    2.5810   -4.8570 H       1  UNL1        0.0656
     32 H           6.1680    1.5540   -5.1320 H       1  UNL1        0.0647
     33 H           4.7020   -2.1420   -3.5170 H       1  UNL1        0.0676
     34 H          -0.6670    0.6920   -3.8310 H       1  UNL1        0.0664
     35 H          -2.8430    0.0720   -2.6330 H       1  UNL1        0.0838
     36 H          -4.1090   -0.4450    1.2920 H       1  UNL1        0.1495
     37 H          -4.7730   -0.1260    3.8770 H       1  UNL1        0.0251
     38 H          -3.8480   -1.3940    4.7020 H       1  UNL1        0.0251
     39 H          -4.6500   -1.7360    3.1610 H       1  UNL1        0.0251
     40 H          -1.6860   -2.2340    3.7210 H       1  UNL1        0.0251
     41 H          -2.4470   -2.5300    2.1490 H       1  UNL1        0.0251
     42 H          -0.9920   -1.5390    2.2580 H       1  UNL1        0.0251
     43 H          -2.7080    1.4810    3.8230 H       1  UNL1        0.0578
     44 H          -2.0410    0.2160    4.8630 H       1  UNL1        0.0578
     45 H          -0.8810    0.9730    2.4180 H       1  UNL1        0.2095
@<TRIPOS>BOND
     1     1     2    1
     2     1    28    1
     3     1    29    1
     4     1    30    1
     5     2     3   ar
     6     2    27   ar
     7     3     4    2
     8     3     5   ar
     9     5     6    1
    10     5    15   ar
    11     6     7    1
    12     7     8   ar
    13     7    13   ar
    14     8     9   ar
    15     8    31    1
    16     9    10   ar
    17     9    32    1
    18    10    11    1
    19    10    12   ar
    20    12    13   ar
    21    12    33    1
    22    13    14    1
    23    15    16   ar
    24    15    34    1
    25    16    17   ar
    26    16    27   ar
    27    17    18   ar
    28    17    35    1
    29    18    19   ar
    30    19    20    1
    31    19    26   ar
    32    21    20    1
    33    20    36    1
    34    21    22    1
    35    21    23    1
    36    21    24    1
    37    22    37    1
    38    22    38    1
    39    22    39    1
    40    23    40    1
    41    23    41    1
    42    23    42    1
    43    24    25    1
    44    24    43    1
    45    24    44    1
    46    25    45    1
    47    26    27   ar
@<TRIPOS>MOLECULE
AD3CC00076082-I00-C00
 40 42 0 0 0
SMALL
GASTEIGER

@<TRIPOS>ATOM
      1 O          -1.8550    3.0260   -0.6510 O.2     1  UNL1       -0.2660
      2 C          -1.5330    1.8520   -0.4540 C.ar    1  UNL1        0.2738
      3 C          -0.0790    1.4700   -0.4590 C.ar    1  UNL1        0.1241
      4 BR          1.1780    2.7790   -0.9180 Br      1  UNL1       -0.0409
      5 C           0.2600    0.2200   -0.1060 C.ar    1  UNL1        0.1419
      6 O           1.5600   -0.2420   -0.1000 O.3     1  UNL1       -0.4859
      7 C           2.1330   -0.1840    1.2160 C.3     1  UNL1        0.1173
      8 C           3.5860   -0.5750    1.1420 C.ar    1  UNL1        0.0250
      9 C           4.4240   -0.0870    0.1270 C.ar    1  UNL1       -0.0499
     10 C           5.7760   -0.4380    0.1000 C.ar    1  UNL1       -0.0259
     11 C           6.2920   -1.2670    1.0900 C.ar    1  UNL1        0.1261
     12 F           7.5880   -1.6010    1.0610 F       1  UNL1       -0.2054
     13 C           5.4860   -1.7500    2.1110 C.ar    1  UNL1        0.0092
     14 C           4.1420   -1.3960    2.1310 C.ar    1  UNL1        0.1325
     15 F           3.3700   -1.8540    3.1270 F       1  UNL1       -0.2050
     16 C          -0.7380   -0.7820    0.1550 C.ar    1  UNL1        0.0034
     17 C          -2.0490   -0.4890    0.1260 C.ar    1  UNL1        0.0562
     18 C          -3.0610   -1.6010    0.3130 C.3     1  UNL1        0.0848
     19 O          -3.9300   -1.6980   -0.8110 O.3     1  UNL1       -0.3890
     20 N          -2.4610    0.8230   -0.1640 N.ar    1  UNL1       -0.2724
     21 C          -3.8390    1.2220   -0.1460 C.ar    1  UNL1        0.1201
     22 C          -4.4410    1.7520   -1.2930 C.ar    1  UNL1        0.1500
     23 F          -3.7580    1.8180   -2.4470 F       1  UNL1       -0.2032
     24 C          -5.7730    2.1660   -1.2870 C.ar    1  UNL1       -0.0242
     25 C          -6.5270    2.0610   -0.1180 C.ar    1  UNL1       -0.0562
     26 C          -5.9430    1.5410    1.0360 C.ar    1  UNL1       -0.0242
     27 C          -4.6100    1.1290    1.0160 C.ar    1  UNL1        0.1500
     28 F          -4.0650    0.6780    2.1570 F       1  UNL1       -0.2032
     29 H           2.0650    0.8310    1.6260 H       1  UNL1        0.0749
     30 H           1.5850   -0.8710    1.8730 H       1  UNL1        0.0749
     31 H           4.0270    0.5660   -0.6480 H       1  UNL1        0.0623
     32 H           6.4280   -0.0690   -0.6860 H       1  UNL1        0.0646
     33 H           5.8990   -2.3900    2.8820 H       1  UNL1        0.0675
     34 H          -0.3900   -1.7950    0.3360 H       1  UNL1        0.0673
     35 H          -3.6610   -1.4610    1.2150 H       1  UNL1        0.0622
     36 H          -2.5680   -2.5740    0.4180 H       1  UNL1        0.0622
     37 H          -3.4000   -1.5310   -1.6090 H       1  UNL1        0.2099
     38 H          -6.2120    2.5640   -2.1970 H       1  UNL1        0.0647
     39 H          -7.5650    2.3840   -0.1080 H       1  UNL1        0.0619
     40 H          -6.5130    1.4610    1.9570 H       1  UNL1        0.0647
@<TRIPOS>BOND
     1     1     2    2
     2     2     3   ar
     3     2    20   ar
     4     3     4    1
     5     3     5   ar
     6     5     6    1
     7     5    16   ar
     8     6     7    1
     9     7     8    1
    10     7    29    1
    11     7    30    1
    12     8     9   ar
    13     8    14   ar
    14     9    10   ar
    15     9    31    1
    16    10    11   ar
    17    10    32    1
    18    11    12    1
    19    11    13   ar
    20    13    14   ar
    21    13    33    1
    22    14    15    1
    23    16    17   ar
    24    16    34    1
    25    17    18    1
    26    17    20   ar
    27    18    19    1
    28    18    35    1
    29    18    36    1
    30    19    37    1
    31    20    21    1
    32    21    22   ar
    33    21    27   ar
    34    22    23    1
    35    22    24   ar
    36    24    25   ar
    37    24    38    1
    38    25    26   ar
    39    25    39    1
    40    26    27   ar
    41    26    40    1
    42    27    28    1
@<TRIPOS>MOLECULE
AD3CC00076085-I00-C00
 47 49 0 0 0
SMALL
GASTEIGER

@<TRIPOS>ATOM
      1 C           0.4760    0.4100   -1.5590 C.3     1  UNL1       -0.0237
      2 C           1.5040    0.2340   -0.4700 C.ar    1  UNL1        0.0278
      3 C           2.7550   -0.1320   -0.7930 C.ar    1  UNL1        0.0009
      4 C           3.7880   -0.2250    0.2020 C.ar    1  UNL1        0.1418
      5 O           5.0360   -0.5600   -0.2830 O.3     1  UNL1       -0.4859
      6 C           5.2100   -1.9840   -0.3450 C.3     1  UNL1        0.1173
      7 C           6.6320   -2.2990   -0.7330 C.ar    1  UNL1        0.0250
      8 C           7.7140   -1.5760   -0.2050 C.ar    1  UNL1       -0.0499
      9 C           9.0230   -1.9130   -0.5560 C.ar    1  UNL1       -0.0259
     10 C           9.2530   -2.9760   -1.4220 C.ar    1  UNL1        0.1261
     11 F          10.5100   -3.2960   -1.7540 F       1  UNL1       -0.2054
     12 C           8.2000   -3.7150   -1.9430 C.ar    1  UNL1        0.0092
     13 C           6.9000   -3.3730   -1.5890 C.ar    1  UNL1        0.1325
     14 F           5.8870   -4.0980   -2.0840 F       1  UNL1       -0.2050
     15 C           3.5610    0.1200    1.4790 C.ar    1  UNL1        0.1241
     16 BR          4.8950    0.1180    2.7910 Br      1  UNL1       -0.0409
     17 C           2.1620    0.4930    1.8890 C.ar    1  UNL1        0.2737
     18 O           1.9060    0.6880    3.0790 O.2     1  UNL1       -0.2660
     19 N           1.1890    0.5420    0.8620 N.ar    1  UNL1       -0.2749
     20 C          -0.1340    0.9040    1.2800 C.ar    1  UNL1        0.1203
     21 C          -0.3750    2.1290    1.9080 C.ar    1  UNL1        0.1535
     22 F           0.6160    3.0230    2.0510 F       1  UNL1       -0.2031
     23 C          -1.6520    2.4810    2.3430 C.ar    1  UNL1        0.0176
     24 C          -2.7230    1.6050    2.1660 C.ar    1  UNL1        0.1268
     25 O          -3.9210    2.0640    2.6370 O.3     1  UNL1       -0.4826
     26 C          -5.0490    1.2010    2.4940 C.3     1  UNL1        0.1649
     27 C          -6.3020    1.8500    3.0750 C.2     1  UNL1        0.2481
     28 N          -6.0900    2.8490    3.9820 N.am    1  UNL1       -0.3265
     29 O          -7.4380    1.4830    2.7930 O.2     1  UNL1       -0.2723
     30 C          -2.5020    0.3750    1.5480 C.ar    1  UNL1        0.0176
     31 C          -1.2170    0.0360    1.1150 C.ar    1  UNL1        0.1535
     32 F          -1.0370   -1.1770    0.5680 F       1  UNL1       -0.2031
     33 H          -0.2650   -0.3920   -1.5390 H       1  UNL1        0.0292
     34 H           0.9370    0.3920   -2.5540 H       1  UNL1        0.0292
     35 H          -0.0330    1.3760   -1.4700 H       1  UNL1        0.0292
     36 H           3.0330   -0.3320   -1.8250 H       1  UNL1        0.0672
     37 H           5.0060   -2.4440    0.6310 H       1  UNL1        0.0749
     38 H           4.5140   -2.3950   -1.0870 H       1  UNL1        0.0749
     39 H           7.5420   -0.7460    0.4780 H       1  UNL1        0.0623
     40 H           9.8640   -1.3530   -0.1570 H       1  UNL1        0.0646
     41 H           8.3890   -4.5470   -2.6110 H       1  UNL1        0.0675
     42 H          -1.7980    3.4470    2.8170 H       1  UNL1        0.0684
     43 H          -5.2430    1.0150    1.4310 H       1  UNL1        0.0795
     44 H          -4.8880    0.2630    3.0370 H       1  UNL1        0.0795
     45 H          -5.1780    3.2860    4.0390 H       1  UNL1        0.1450
     46 H          -6.8970    3.3580    4.3170 H       1  UNL1        0.1450
     47 H          -3.2900   -0.3530    1.3920 H       1  UNL1        0.0684
@<TRIPOS>BOND
     1     1     2    1
     2     1    33    1
     3     1    34    1
     4     1    35    1
     5     2     3   ar
     6     2    19   ar
     7     3     4   ar
     8     3    36    1
     9     4     5    1
    10     4    15   ar
    11     5     6    1
    12     6     7    1
    13     6    37    1
    14     6    38    1
    15     7     8   ar
    16     7    13   ar
    17     8     9   ar
    18     8    39    1
    19     9    10   ar
    20     9    40    1
    21    10    11    1
    22    10    12   ar
    23    12    13   ar
    24    12    41    1
    25    13    14    1
    26    15    16    1
    27    15    17   ar
    28    17    18    2
    29    17    19   ar
    30    19    20    1
    31    20    21   ar
    32    20    31   ar
    33    21    22    1
    34    21    23   ar
    35    23    24   ar
    36    23    42    1
    37    24    25    1
    38    24    30   ar
    39    25    26    1
    40    26    27    1
    41    26    43    1
    42    26    44    1
    43    27    28   am
    44    27    29    2
    45    28    45    1
    46    28    46    1
    47    30    31   ar
    48    30    47    1
    49    31    32    1
@<TRIPOS>MOLECULE
AD3CC00076098-I00-C01
 40 42 0 0 0
SMALL
GASTEIGER

@<TRIPOS>ATOM
      1 O           2.2070   -0.8270   -2.0010 O.2     1  UNL1       -0.2656
      2 C           1.5010   -0.4980   -1.0460 C.ar    1  UNL1        0.2782
      3 C           0.0900   -0.0530   -1.2830 C.ar    1  UNL1        0.1471
      4 CL         -0.5310   -0.1470   -2.8900 Cl      1  UNL1       -0.0741
      5 C          -0.6320    0.4290   -0.2630 C.ar    1  UNL1        0.1462
      6 O          -1.9450    0.8360   -0.3780 O.3     1  UNL1       -0.4856
      7 C          -2.0370    2.2490   -0.6160 C.3     1  UNL1        0.1174
      8 C          -3.4770    2.6090   -0.8670 C.ar    1  UNL1        0.0250
      9 C          -4.2650    1.8700   -1.7640 C.ar    1  UNL1       -0.0499
     10 C          -5.5910    2.2370   -2.0040 C.ar    1  UNL1       -0.0259
     11 C          -6.1260    3.3460   -1.3570 C.ar    1  UNL1        0.1261
     12 F          -7.3970    3.6960   -1.5910 F       1  UNL1       -0.2054
     13 C          -5.3620    4.0990   -0.4770 C.ar    1  UNL1        0.0092
     14 C          -4.0440    3.7260   -0.2430 C.ar    1  UNL1        0.1325
     15 F          -3.3070    4.4640    0.6000 F       1  UNL1       -0.2050
     16 C          -0.1150    0.4200    1.0780 C.ar    1  UNL1        0.0038
     17 C           1.1320   -0.0070    1.3450 C.ar    1  UNL1        0.0562
     18 C           1.5960   -0.0860    2.7860 C.3     1  UNL1        0.0848
     19 O           1.9860   -1.4120    3.1270 O.3     1  UNL1       -0.3890
     20 N           1.9550   -0.4560    0.2950 N.ar    1  UNL1       -0.2721
     21 C           3.3150   -0.8630    0.4980 C.ar    1  UNL1        0.1201
     22 C           4.2720    0.0200    1.0050 C.ar    1  UNL1        0.1500
     23 F           3.9390    1.2870    1.2970 F       1  UNL1       -0.2032
     24 C           5.6000   -0.3710    1.1790 C.ar    1  UNL1       -0.0242
     25 C           5.9930   -1.6660    0.8390 C.ar    1  UNL1       -0.0562
     26 C           5.0540   -2.5600    0.3270 C.ar    1  UNL1       -0.0242
     27 C           3.7300   -2.1560    0.1570 C.ar    1  UNL1        0.1500
     28 F           2.8390   -3.0560   -0.2890 F       1  UNL1       -0.2032
     29 H          -1.4460    2.5370   -1.4950 H       1  UNL1        0.0749
     30 H          -1.6520    2.7830    0.2600 H       1  UNL1        0.0749
     31 H          -3.8500    1.0030   -2.2750 H       1  UNL1        0.0623
     32 H          -6.2080    1.6670   -2.6920 H       1  UNL1        0.0646
     33 H          -5.7860    4.9650    0.0180 H       1  UNL1        0.0675
     34 H          -0.7860    0.7370    1.8720 H       1  UNL1        0.0673
     35 H           2.4280    0.5930    2.9860 H       1  UNL1        0.0622
     36 H           0.7940    0.1970    3.4780 H       1  UNL1        0.0622
     37 H           1.3650   -2.0230    2.6950 H       1  UNL1        0.2099
     38 H           6.3210    0.3410    1.5690 H       1  UNL1        0.0647
     39 H           7.0270   -1.9760    0.9720 H       1  UNL1        0.0619
     40 H           5.3400   -3.5740    0.0610 H       1  UNL1        0.0647
@<TRIPOS>BOND
     1     1     2    2
     2     2     3   ar
     3     2    20   ar
     4     3     4    1
     5     3     5   ar
     6     5     6    1
     7     5    16   ar
     8     6     7    1
     9     7     8    1
    10     7    29    1
    11     7    30    1
    12     8     9   ar
    13     8    14   ar
    14     9    10   ar
    15     9    31    1
    16    10    11   ar
    17    10    32    1
    18    11    12    1
    19    11    13   ar
    20    13    14   ar
    21    13    33    1
    22    14    15    1
    23    16    17   ar
    24    16    34    1
    25    17    18    1
    26    17    20   ar
    27    18    19    1
    28    18    35    1
    29    18    36    1
    30    19    37    1
    31    20    21    1
    32    21    22   ar
    33    21    27   ar
    34    22    23    1
    35    22    24   ar
    36    24    25   ar
    37    24    38    1
    38    25    26   ar
    39    25    39    1
    40    26    27   ar
    41    26    40    1
    42    27    28    1
@<TRIPOS>MOLECULE
AD3CC00076382-I00-C00
 48 51 0 0 0
SMALL
GASTEIGER

@<TRIPOS>ATOM
      1 C          -5.2820    0.1610   -4.9190 C.3     1  UNL1        0.0124
      2 C          -4.1820   -0.8180   -4.5950 C.2     1  UNL1        0.2125
      3 O          -3.9940   -1.7950   -5.3210 O.2     1  UNL1       -0.2759
      4 N          -3.4000   -0.5520   -3.4710 N.am    1  UNL1       -0.3017
      5 C          -3.8200    0.3710   -2.4160 C.3     1  UNL1        0.0152
      6 C          -2.6310    0.9800   -1.6790 C.3     1  UNL1       -0.0288
      7 C          -1.6720   -0.1080   -1.1820 C.3     1  UNL1        0.0042
      8 C          -0.5010    0.4860   -0.4510 C.ar    1  UNL1        0.0475
      9 N           0.4560    1.2330   -1.0830 N.ar    1  UNL1       -0.2801
     10 N           1.4510    1.6360   -0.2870 N.ar    1  UNL1       -0.1730
     11 C           1.1330    1.1650    0.9290 C.ar    1  UNL1        0.1005
     12 C           2.0120    1.4180    2.0750 C.ar    1  UNL1        0.0029
     13 C           1.4930    1.6520    3.3580 C.ar    1  UNL1       -0.0498
     14 C           2.3500    1.8840    4.4380 C.ar    1  UNL1       -0.0258
     15 C           3.7240    1.8900    4.2360 C.ar    1  UNL1        0.1234
     16 F           4.5420    2.1130    5.2730 F       1  UNL1       -0.2055
     17 C           4.2610    1.6720    2.9740 C.ar    1  UNL1       -0.0258
     18 C           3.4060    1.4390    1.8950 C.ar    1  UNL1       -0.0498
     19 C          -0.0990    0.4360    0.8730 C.ar    1  UNL1        0.0308
     20 C          -0.8080   -0.3000    1.9020 C.ar    1  UNL1       -0.0112
     21 C          -2.0720    0.1140    2.3230 C.ar    1  UNL1       -0.0358
     22 C          -2.7000   -0.6170    3.3150 C.ar    1  UNL1        0.0281
     23 N          -2.1590   -1.7070    3.9000 N.ar    1  UNL1       -0.2632
     24 C          -0.9330   -2.0830    3.4760 C.ar    1  UNL1        0.0281
     25 C          -0.2230   -1.4200    2.4910 C.ar    1  UNL1       -0.0358
     26 C          -1.2300   -0.9900   -2.3560 C.3     1  UNL1       -0.0288
     27 C          -2.4360   -1.5800   -3.0770 C.3     1  UNL1        0.0152
     28 H          -5.7500   -0.1230   -5.8670 H       1  UNL1        0.0323
     29 H          -6.0480    0.1410   -4.1400 H       1  UNL1        0.0323
     30 H          -4.8710    1.1670   -5.0350 H       1  UNL1        0.0323
     31 H          -4.4520   -0.1970   -1.7220 H       1  UNL1        0.0465
     32 H          -4.4320    1.1790   -2.8220 H       1  UNL1        0.0465
     33 H          -2.9920    1.5860   -0.8400 H       1  UNL1        0.0287
     34 H          -2.1040    1.6640   -2.3580 H       1  UNL1        0.0287
     35 H          -2.2270   -0.7500   -0.4840 H       1  UNL1        0.0365
     36 H           0.5010    1.4900   -2.0640 H       1  UNL1        0.1886
     37 H           0.4210    1.6730    3.5320 H       1  UNL1        0.0625
     38 H           1.9520    2.0650    5.4320 H       1  UNL1        0.0646
     39 H           5.3370    1.6880    2.8350 H       1  UNL1        0.0646
     40 H           3.8290    1.2750    0.9060 H       1  UNL1        0.0625
     41 H          -2.5540    0.9870    1.8980 H       1  UNL1        0.0639
     42 H          -3.6840   -0.3360    3.6810 H       1  UNL1        0.0830
     43 H          -0.5230   -2.9610    3.9670 H       1  UNL1        0.0830
     44 H           0.7590   -1.7710    2.1940 H       1  UNL1        0.0639
     45 H          -0.5800   -1.8000   -2.0030 H       1  UNL1        0.0287
     46 H          -0.6420   -0.4020   -3.0730 H       1  UNL1        0.0287
     47 H          -2.0900   -2.1370   -3.9550 H       1  UNL1        0.0465
     48 H          -2.9630   -2.2910   -2.4290 H       1  UNL1        0.0465
@<TRIPOS>BOND
     1     1     2    1
     2     1    28    1
     3     1    29    1
     4     1    30    1
     5     2     3    2
     6     2     4   am
     7     4     5    1
     8     4    27    1
     9     5     6    1
    10     5    31    1
    11     5    32    1
    12     6     7    1
    13     6    33    1
    14     6    34    1
    15     7     8    1
    16     7    26    1
    17     7    35    1
    18     8     9   ar
    19     8    19   ar
    20     9    10   ar
    21     9    36    1
    22    10    11   ar
    23    11    12    1
    24    11    19   ar
    25    12    13   ar
    26    12    18   ar
    27    13    14   ar
    28    13    37    1
    29    14    15   ar
    30    14    38    1
    31    15    16    1
    32    15    17   ar
    33    17    18   ar
    34    17    39    1
    35    18    40    1
    36    19    20    1
    37    20    21   ar
    38    20    25   ar
    39    21    22   ar
    40    21    41    1
    41    22    23   ar
    42    22    42    1
    43    23    24   ar
    44    24    25   ar
    45    24    43    1
    46    25    44    1
    47    26    27    1
    48    26    45    1
    49    26    46    1
    50    27    47    1
    51    27    48    1
@<TRIPOS>MOLECULE
AD3CC00077502-I00-C01
 47 50 0 0 0
SMALL
GASTEIGER

@<TRIPOS>ATOM
      1 C           4.3750   -3.0240   -0.1020 C.3     1  UNL1        0.0004
      2 N           2.9920   -2.7750   -0.4240 N.am    1  UNL1       -0.3144
      3 C           2.0100   -3.6540   -0.0150 C.2     1  UNL1        0.2439
      4 O           2.2330   -4.6430    0.6750 O.2     1  UNL1       -0.2702
      5 C           0.6270   -3.3730   -0.4900 C.ar    1  UNL1        0.0385
      6 C          -0.2610   -4.4440   -0.6150 C.ar    1  UNL1       -0.0493
      7 C          -1.5600   -4.2260   -1.0710 C.ar    1  UNL1       -0.0564
      8 C          -1.9960   -2.9310   -1.3930 C.ar    1  UNL1       -0.0292
      9 C          -3.4060   -2.7290   -1.8790 C.3     1  UNL1       -0.0380
     10 C          -1.1210   -1.8370   -1.2260 C.ar    1  UNL1        0.0361
     11 N          -1.5600   -0.5410   -1.5880 N.pl3   1  UNL1       -0.2985
     12 C          -1.0540    0.6900   -1.1410 C.ar    1  UNL1        0.1388
     13 N          -0.8470    1.6440   -2.0780 N.ar    1  UNL1       -0.1988
     14 C          -0.3620    2.8360   -1.7080 C.ar    1  UNL1        0.2162
     15 N          -0.1710    3.7640   -2.7120 N.pl3   1  UNL1       -0.3274
     16 N          -0.0780    3.2270   -0.4660 N.ar    1  UNL1       -0.1947
     17 C          -0.3130    2.2800    0.4640 C.ar    1  UNL1        0.1700
     18 C          -0.7990    1.0120    0.1950 C.ar    1  UNL1        0.0790
     19 C          -0.9150    0.3980    1.4500 C.ar    1  UNL1        0.0624
     20 N          -0.5190    1.1830    2.4500 N.ar    1  UNL1       -0.1721
     21 N          -0.1350    2.3510    1.8460 N.ar    1  UNL1       -0.2138
     22 C           0.3640    3.4260    2.6450 C.ar    1  UNL1        0.0677
     23 C           0.7960    4.6330    2.0810 C.ar    1  UNL1       -0.0362
     24 C           1.2790    5.6610    2.8990 C.ar    1  UNL1       -0.0598
     25 C           1.3360    5.4940    4.2800 C.ar    1  UNL1       -0.0616
     26 C           0.9110    4.2980    4.8520 C.ar    1  UNL1       -0.0598
     27 C           0.4280    3.2690    4.0410 C.ar    1  UNL1       -0.0362
     28 C           0.1940   -2.0750   -0.7910 C.ar    1  UNL1       -0.0281
     29 H           4.9400   -2.1020   -0.2580 H       1  UNL1        0.0426
     30 H           4.4710   -3.3490    0.9370 H       1  UNL1        0.0426
     31 H           4.7540   -3.8070   -0.7650 H       1  UNL1        0.0426
     32 H           2.7970   -2.1470   -1.1920 H       1  UNL1        0.1487
     33 H           0.0610   -5.4530   -0.3650 H       1  UNL1        0.0625
     34 H          -2.2320   -5.0760   -1.1720 H       1  UNL1        0.0621
     35 H          -3.9560   -2.0800   -1.1900 H       1  UNL1        0.0278
     36 H          -3.9490   -3.6780   -1.9430 H       1  UNL1        0.0278
     37 H          -3.4040   -2.2830   -2.8790 H       1  UNL1        0.0278
     38 H          -1.6470   -0.4680   -2.6000 H       1  UNL1        0.1536
     39 H          -0.7700    3.5520   -3.4980 H       1  UNL1        0.1452
     40 H          -0.2170    4.7000   -2.3360 H       1  UNL1        0.1452
     41 H          -1.2750   -0.5970    1.6780 H       1  UNL1        0.0856
     42 H           0.7790    4.8150    1.0120 H       1  UNL1        0.0639
     43 H           1.6140    6.5940    2.4520 H       1  UNL1        0.0618
     44 H           1.7120    6.2950    4.9110 H       1  UNL1        0.0618
     45 H           0.9540    4.1630    5.9300 H       1  UNL1        0.0618
     46 H           0.1030    2.3450    4.5170 H       1  UNL1        0.0639
     47 H           0.8810   -1.2420   -0.6770 H       1  UNL1        0.0644
@<TRIPOS>BOND
     1     1     2    1
     2     1    29    1
     3     1    30    1
     4     1    31    1
     5     2     3   am
     6     2    32    1
     7     3     4    2
     8     3     5    1
     9     5     6   ar
    10     5    28   ar
    11     6     7   ar
    12     6    33    1
    13     7     8   ar
    14     7    34    1
    15     8     9    1
    16     8    10   ar
    17     9    35    1
    18     9    36    1
    19     9    37    1
    20    10    11    1
    21    10    28   ar
    22    11    12    1
    23    11    38    1
    24    12    13   ar
    25    12    18   ar
    26    13    14   ar
    27    14    15    1
    28    14    16   ar
    29    15    39    1
    30    15    40    1
    31    16    17   ar
    32    17    18   ar
    33    17    21   ar
    34    18    19   ar
    35    19    20   ar
    36    19    41    1
    37    20    21   ar
    38    21    22    1
    39    22    23   ar
    40    22    27   ar
    41    23    24   ar
    42    23    42    1
    43    24    25   ar
    44    24    43    1
    45    25    26   ar
    46    25    44    1
    47    26    27   ar
    48    26    45    1
    49    27    46    1
    50    28    47    1
@<TRIPOS>MOLECULE
AD3CC00077511-I00-C01
 48 51 0 0 0
SMALL
GASTEIGER

@<TRIPOS>ATOM
      1 C           0.0820   -4.8440    2.7800 C.3     1  UNL1        0.0004
      2 N           0.2770   -3.4180    2.6880 N.am    1  UNL1       -0.3144
      3 C           0.8310   -2.7190    3.7410 C.2     1  UNL1        0.2439
      4 O           1.2450   -3.2500    4.7660 O.2     1  UNL1       -0.2702
      5 C           0.8690   -1.2380    3.6000 C.ar    1  UNL1        0.0385
      6 C           0.8180   -0.4550    4.7550 C.ar    1  UNL1       -0.0493
      7 C           0.8580    0.9350    4.6570 C.ar    1  UNL1       -0.0564
      8 C           0.9450    1.5610    3.4030 C.ar    1  UNL1       -0.0292
      9 C           0.9810    3.0650    3.3340 C.3     1  UNL1       -0.0380
     10 C           0.9940    0.7780    2.2310 C.ar    1  UNL1        0.0361
     11 N           1.1330    1.4180    0.9760 N.pl3   1  UNL1       -0.2986
     12 C           0.8270    0.9010   -0.2920 C.ar    1  UNL1        0.1373
     13 N           1.7250    1.1220   -1.2780 N.ar    1  UNL1       -0.2167
     14 C           1.4810    0.6430   -2.5160 C.ar    1  UNL1        0.1305
     15 C           2.5360    0.8860   -3.5530 C.3     1  UNL1       -0.0045
     16 N           0.4080   -0.0690   -2.8980 N.ar    1  UNL1       -0.2127
     17 C          -0.4910   -0.2500   -1.9100 C.ar    1  UNL1        0.1685
     18 C          -0.3470    0.2110   -0.6120 C.ar    1  UNL1        0.0789
     19 C          -1.5270   -0.1760    0.0390 C.ar    1  UNL1        0.0624
     20 N          -2.3470   -0.8780   -0.7410 N.ar    1  UNL1       -0.1721
     21 N          -1.7180   -0.9140   -1.9600 N.ar    1  UNL1       -0.2139
     22 C          -2.3460   -1.5860   -3.0540 C.ar    1  UNL1        0.0677
     23 C          -1.7480   -1.6670   -4.3180 C.ar    1  UNL1       -0.0362
     24 C          -2.3950   -2.3350   -5.3630 C.ar    1  UNL1       -0.0598
     25 C          -3.6400   -2.9260   -5.1590 C.ar    1  UNL1       -0.0616
     26 C          -4.2440   -2.8510   -3.9070 C.ar    1  UNL1       -0.0598
     27 C          -3.6030   -2.1850   -2.8590 C.ar    1  UNL1       -0.0362
     28 C           0.9840   -0.6220    2.3480 C.ar    1  UNL1       -0.0281
     29 H          -0.0970   -5.2350    1.7760 H       1  UNL1        0.0426
     30 H          -0.7870   -5.0380    3.4140 H       1  UNL1        0.0426
     31 H           0.9640   -5.3200    3.2150 H       1  UNL1        0.0426
     32 H          -0.2790   -2.9160    2.0080 H       1  UNL1        0.1487
     33 H           0.7520   -0.9270    5.7330 H       1  UNL1        0.0625
     34 H           0.8210    1.5280    5.5690 H       1  UNL1        0.0621
     35 H           0.1620    3.4370    2.7100 H       1  UNL1        0.0278
     36 H           1.9370    3.4020    2.9210 H       1  UNL1        0.0278
     37 H           0.8690    3.5160    4.3260 H       1  UNL1        0.0278
     38 H           2.0470    1.8620    0.9000 H       1  UNL1        0.1536
     39 H           3.2730    0.0790   -3.5240 H       1  UNL1        0.0308
     40 H           2.0930    0.9250   -4.5530 H       1  UNL1        0.0308
     41 H           3.0450    1.8370   -3.3670 H       1  UNL1        0.0308
     42 H          -1.8200    0.0180    1.0630 H       1  UNL1        0.0856
     43 H          -0.7810   -1.2250   -4.5340 H       1  UNL1        0.0639
     44 H          -1.9230   -2.3930   -6.3410 H       1  UNL1        0.0618
     45 H          -4.1380   -3.4430   -5.9740 H       1  UNL1        0.0618
     46 H          -5.2160   -3.3100   -3.7430 H       1  UNL1        0.0618
     47 H          -4.1020   -2.1430   -1.8930 H       1  UNL1        0.0639
     48 H           1.1080   -1.2390    1.4620 H       1  UNL1        0.0644
@<TRIPOS>BOND
     1     1     2    1
     2     1    29    1
     3     1    30    1
     4     1    31    1
     5     2     3   am
     6     2    32    1
     7     3     4    2
     8     3     5    1
     9     5     6   ar
    10     5    28   ar
    11     6     7   ar
    12     6    33    1
    13     7     8   ar
    14     7    34    1
    15     8     9    1
    16     8    10   ar
    17     9    35    1
    18     9    36    1
    19     9    37    1
    20    10    11    1
    21    10    28   ar
    22    11    12    1
    23    11    38    1
    24    12    13   ar
    25    12    18   ar
    26    13    14   ar
    27    14    15    1
    28    14    16   ar
    29    15    39    1
    30    15    40    1
    31    15    41    1
    32    16    17   ar
    33    17    18   ar
    34    17    21   ar
    35    18    19   ar
    36    19    20   ar
    37    19    42    1
    38    20    21   ar
    39    21    22    1
    40    22    23   ar
    41    22    27   ar
    42    23    24   ar
    43    23    43    1
    44    24    25   ar
    45    24    44    1
    46    25    26   ar
    47    25    45    1
    48    26    27   ar
    49    26    46    1
    50    27    47    1
    51    28    48    1
@<TRIPOS>MOLECULE
AD3CC00077629-I00-C00
 65 69 0 0 0
SMALL
GASTEIGER

@<TRIPOS>ATOM
      1 C          -1.0550    5.5640   -0.5610 C.3     1  UNL1       -0.0364
      2 C          -1.3750    4.4250   -1.5570 C.3     1  UNL1        0.1138
      3 C          -2.8760    4.5360   -1.9040 C.3     1  UNL1       -0.0364
      4 C          -0.5700    4.6640   -2.8610 C.2     1  UNL1        0.3248
      5 O           0.1520    3.8830   -3.4610 O.2     1  UNL1       -0.2489
      6 O          -0.7410    5.9070   -3.3680 O.3     1  UNL1       -0.4793
      7 N          -1.0790    3.0920   -0.9120 N.3     1  UNL1       -0.2878
      8 C          -1.5140    1.9260   -1.7020 C.3     1  UNL1        0.0004
      9 C          -1.3720    0.6220   -0.9140 C.3     1  UNL1       -0.0333
     10 C           0.0690    0.4250   -0.4320 C.3     1  UNL1       -0.0135
     11 C           0.2380   -0.8530    0.3710 C.ar    1  UNL1       -0.0416
     12 C           1.1070   -1.8500   -0.0800 C.ar    1  UNL1       -0.0498
     13 C           1.3000   -3.0450    0.6390 C.ar    1  UNL1       -0.0071
     14 C           2.2360   -4.0430    0.0870 C.ar    1  UNL1        0.0012
     15 C           1.7440   -5.0250   -0.7940 C.ar    1  UNL1       -0.0499
     16 C           2.5960   -5.9860   -1.3420 C.ar    1  UNL1       -0.0258
     17 C           3.9450   -5.9690   -1.0140 C.ar    1  UNL1        0.1248
     18 F           4.7610   -6.8920   -1.5400 F       1  UNL1       -0.2054
     19 C           4.4630   -5.0130   -0.1510 C.ar    1  UNL1       -0.0075
     20 C           3.6120   -4.0510    0.3970 C.ar    1  UNL1        0.0514
     21 CL          4.3080   -2.8840    1.4670 Cl      1  UNL1       -0.0828
     22 C           0.5890   -3.2410    1.8480 C.ar    1  UNL1        0.0069
     23 C           0.7530   -4.4640    2.6480 C.ar    1  UNL1       -0.0469
     24 C           0.0780   -4.6420    3.7860 C.ar    1  UNL1        0.0039
     25 C          -0.8690   -3.6290    4.2980 C.ar    1  UNL1        0.2563
     26 O          -1.4690   -3.8650    5.3460 O.2     1  UNL1       -0.2673
     27 N          -1.0100   -2.4760    3.5380 N.ar    1  UNL1       -0.2741
     28 C          -1.9210   -1.4870    4.0020 C.ar    1  UNL1        0.0866
     29 C          -1.5050   -0.5140    4.9280 C.ar    1  UNL1        0.0663
     30 CL          0.1290   -0.4250    5.4880 Cl      1  UNL1       -0.0814
     31 C          -2.4100    0.4380    5.4090 C.ar    1  UNL1       -0.0413
     32 C          -3.7370    0.4230    4.9810 C.ar    1  UNL1       -0.0589
     33 C          -4.1640   -0.5440    4.0710 C.ar    1  UNL1       -0.0413
     34 C          -3.2650   -1.4990    3.5870 C.ar    1  UNL1        0.0663
     35 CL         -3.8620   -2.6690    2.4600 Cl      1  UNL1       -0.0814
     36 C          -0.2990   -2.2490    2.3160 C.ar    1  UNL1        0.0581
     37 C          -0.4560   -1.0660    1.5700 C.ar    1  UNL1       -0.0337
     38 C           0.5190    1.6630    0.3500 C.3     1  UNL1       -0.0333
     39 C           0.3220    2.9360   -0.4770 C.3     1  UNL1        0.0004
     40 H          -1.4730    6.5210   -0.8980 H       1  UNL1        0.0253
     41 H           0.0230    5.7280   -0.4530 H       1  UNL1        0.0253
     42 H          -1.4800    5.3590    0.4280 H       1  UNL1        0.0253
     43 H          -3.1470    3.9190   -2.7680 H       1  UNL1        0.0253
     44 H          -3.5050    4.2460   -1.0550 H       1  UNL1        0.0253
     45 H          -3.1500    5.5640   -2.1730 H       1  UNL1        0.0253
     46 H          -0.1890    5.9030   -4.1780 H       1  UNL1        0.2951
     47 H          -2.5730    2.0050   -1.9670 H       1  UNL1        0.0427
     48 H          -0.9520    1.8410   -2.6380 H       1  UNL1        0.0427
     49 H          -2.0700    0.6400   -0.0670 H       1  UNL1        0.0283
     50 H          -1.6750   -0.2210   -1.5470 H       1  UNL1        0.0283
     51 H           0.7050    0.3530   -1.3260 H       1  UNL1        0.0350
     52 H           1.6580   -1.6990   -1.0090 H       1  UNL1        0.0627
     53 H           0.6870   -5.0430   -1.0560 H       1  UNL1        0.0625
     54 H           2.2150   -6.7440   -2.0200 H       1  UNL1        0.0646
     55 H           5.5220   -5.0270    0.0840 H       1  UNL1        0.0661
     56 H           1.4390   -5.2340    2.3130 H       1  UNL1        0.0626
     57 H           0.1890   -5.5350    4.3880 H       1  UNL1        0.0672
     58 H          -2.0860    1.1920    6.1230 H       1  UNL1        0.0633
     59 H          -4.4400    1.1620    5.3600 H       1  UNL1        0.0618
     60 H          -5.2020   -0.5540    3.7480 H       1  UNL1        0.0633
     61 H          -1.1260   -0.2820    1.9130 H       1  UNL1        0.0641
     62 H          -0.0400    1.7580    1.2900 H       1  UNL1        0.0283
     63 H           1.5770    1.5680    0.6260 H       1  UNL1        0.0283
     64 H           1.0080    2.9160   -1.3310 H       1  UNL1        0.0427
     65 H           0.6290    3.7660    0.1650 H       1  UNL1        0.0427
@<TRIPOS>BOND
     1     1     2    1
     2     1    40    1
     3     1    41    1
     4     1    42    1
     5     2     3    1
     6     2     4    1
     7     2     7    1
     8     3    43    1
     9     3    44    1
    10     3    45    1
    11     4     5    2
    12     4     6    1
    13     6    46    1
    14     7     8    1
    15     7    39    1
    16     8     9    1
    17     8    47    1
    18     8    48    1
    19     9    10    1
    20     9    49    1
    21     9    50    1
    22    10    11    1
    23    10    38    1
    24    10    51    1
    25    11    12   ar
    26    11    37   ar
    27    12    13   ar
    28    12    52    1
    29    13    14    1
    30    13    22   ar
    31    14    15   ar
    32    14    20   ar
    33    15    16   ar
    34    15    53    1
    35    16    17   ar
    36    16    54    1
    37    17    18    1
    38    17    19   ar
    39    19    20   ar
    40    19    55    1
    41    20    21    1
    42    22    23   ar
    43    22    36   ar
    44    23    24   ar
    45    23    56    1
    46    24    25   ar
    47    24    57    1
    48    25    26    2
    49    25    27   ar
    50    27    28    1
    51    27    36   ar
    52    28    29   ar
    53    28    34   ar
    54    29    30    1
    55    29    31   ar
    56    31    32   ar
    57    31    58    1
    58    32    33   ar
    59    32    59    1
    60    33    34   ar
    61    33    60    1
    62    34    35    1
    63    36    37   ar
    64    37    61    1
    65    38    39    1
    66    38    62    1
    67    38    63    1
    68    39    64    1
    69    39    65    1
@<TRIPOS>MOLECULE
AD3CC00077631-I00-C00
 63 67 0 0 0
SMALL
GASTEIGER

@<TRIPOS>ATOM
      1 C           0.4930   -2.3540   -6.1100 C.3     1  UNL1       -0.0497
      2 C           1.0110   -1.9410   -4.7240 C.3     1  UNL1        0.0048
      3 C           0.7070   -0.4600   -4.4870 C.3     1  UNL1       -0.0497
      4 N           0.5090   -2.8930   -3.7240 N.3     1  UNL1       -0.2999
      5 C           1.4240   -3.1880   -2.6230 C.3     1  UNL1       -0.0003
      6 C           1.2980   -2.2440   -1.4300 C.3     1  UNL1       -0.0333
      7 C          -0.1540   -2.1780   -0.9370 C.3     1  UNL1       -0.0135
      8 C          -0.3160   -1.2090    0.2220 C.ar    1  UNL1       -0.0418
      9 C          -0.7660   -1.6670    1.4650 C.ar    1  UNL1       -0.0501
     10 C          -0.9400   -0.7920    2.5520 C.ar    1  UNL1       -0.0098
     11 C          -1.4360   -1.3400    3.8260 C.ar    1  UNL1        0.0010
     12 C          -0.5090   -1.8650    4.7480 C.ar    1  UNL1       -0.0499
     13 C          -0.9340   -2.3970    5.9660 C.ar    1  UNL1       -0.0258
     14 C          -2.2890   -2.4110    6.2710 C.ar    1  UNL1        0.1248
     15 F          -2.6950   -2.9220    7.4400 F       1  UNL1       -0.2054
     16 C          -3.2290   -1.9050    5.3830 C.ar    1  UNL1       -0.0075
     17 C          -2.8050   -1.3730    4.1640 C.ar    1  UNL1        0.0514
     18 CL         -4.0170   -0.7550    3.0960 Cl      1  UNL1       -0.0828
     19 C          -0.6370    0.5790    2.3850 C.ar    1  UNL1       -0.0008
     20 C          -0.1920    1.0600    1.1420 C.ar    1  UNL1        0.0484
     21 C          -0.0340    0.1570    0.0780 C.ar    1  UNL1       -0.0361
     22 N           0.0940    2.4530    1.0140 N.am    1  UNL1       -0.2213
     23 C           0.4100    2.9750   -0.2730 C.ar    1  UNL1        0.0793
     24 C           1.7450    3.2320   -0.6380 C.ar    1  UNL1        0.0641
     25 CL          3.0730    2.8430    0.4010 Cl      1  UNL1       -0.0816
     26 C           2.0450    3.7650   -1.8970 C.ar    1  UNL1       -0.0415
     27 C           1.0230    4.0520   -2.8000 C.ar    1  UNL1       -0.0589
     28 C          -0.3040    3.8090   -2.4480 C.ar    1  UNL1       -0.0415
     29 C          -0.6120    3.2780   -1.1920 C.ar    1  UNL1        0.0641
     30 CL         -2.2840    3.0270   -0.8190 Cl      1  UNL1       -0.0816
     31 C           0.1550    3.3140    2.1000 C.2     1  UNL1        0.3113
     32 O           0.4320    4.5120    2.0360 O.2     1  UNL1       -0.2519
     33 N          -0.0990    2.7670    3.3240 N.am    1  UNL1       -0.2945
     34 C          -0.8860    1.5770    3.4770 C.3     1  UNL1        0.0407
     35 C          -1.1050   -1.8420   -2.0940 C.3     1  UNL1       -0.0333
     36 C          -0.8830   -2.7650   -3.2950 C.3     1  UNL1       -0.0003
     37 H          -0.5910   -2.2310   -6.2000 H       1  UNL1        0.0245
     38 H           0.7370   -3.4010   -6.3240 H       1  UNL1        0.0245
     39 H           0.9610   -1.7440   -6.8910 H       1  UNL1        0.0245
     40 H           2.1030   -2.0390   -4.7830 H       1  UNL1        0.0457
     41 H           1.0800   -0.1170   -3.5200 H       1  UNL1        0.0245
     42 H          -0.3650   -0.2470   -4.5460 H       1  UNL1        0.0245
     43 H           1.1970    0.1530   -5.2530 H       1  UNL1        0.0245
     44 H           2.4650   -3.2150   -2.9670 H       1  UNL1        0.0427
     45 H           1.2150   -4.2100   -2.2780 H       1  UNL1        0.0427
     46 H           1.9480   -2.5980   -0.6200 H       1  UNL1        0.0283
     47 H           1.6740   -1.2530   -1.7060 H       1  UNL1        0.0283
     48 H          -0.4200   -3.1840   -0.5810 H       1  UNL1        0.0350
     49 H          -1.0000   -2.7240    1.5920 H       1  UNL1        0.0627
     50 H           0.5550   -1.8580    4.5150 H       1  UNL1        0.0625
     51 H          -0.2180   -2.8010    6.6760 H       1  UNL1        0.0646
     52 H          -4.2810   -1.9330    5.6500 H       1  UNL1        0.0661
     53 H           0.3220    0.5020   -0.8890 H       1  UNL1        0.0639
     54 H           3.0780    3.9570   -2.1770 H       1  UNL1        0.0633
     55 H           1.2600    4.4710   -3.7760 H       1  UNL1        0.0618
     56 H          -1.0970    4.0450   -3.1540 H       1  UNL1        0.0633
     57 H          -0.1270    3.4620    4.0580 H       1  UNL1        0.1506
     58 H          -1.9400    1.8740    3.4710 H       1  UNL1        0.0513
     59 H          -0.6330    1.1750    4.4620 H       1  UNL1        0.0513
     60 H          -2.1450   -1.9400   -1.7550 H       1  UNL1        0.0283
     61 H          -0.9910   -0.7980   -2.4010 H       1  UNL1        0.0283
     62 H          -1.2360   -3.7690   -3.0200 H       1  UNL1        0.0427
     63 H          -1.5330   -2.4550   -4.1210 H       1  UNL1        0.0427
@<TRIPOS>BOND
     1     1     2    1
     2     1    37    1
     3     1    38    1
     4     1    39    1
     5     2     3    1
     6     2     4    1
     7     2    40    1
     8     3    41    1
     9     3    42    1
    10     3    43    1
    11     4     5    1
    12     4    36    1
    13     5     6    1
    14     5    44    1
    15     5    45    1
    16     6     7    1
    17     6    46    1
    18     6    47    1
    19     7     8    1
    20     7    35    1
    21     7    48    1
    22     8     9   ar
    23     8    21   ar
    24     9    10   ar
    25     9    49    1
    26    10    11    1
    27    10    19   ar
    28    11    12   ar
    29    11    17   ar
    30    12    13   ar
    31    12    50    1
    32    13    14   ar
    33    13    51    1
    34    14    15    1
    35    14    16   ar
    36    16    17   ar
    37    16    52    1
    38    17    18    1
    39    19    20   ar
    40    19    34    1
    41    20    21   ar
    42    20    22    1
    43    21    53    1
    44    22    23    1
    45    22    31   am
    46    23    24   ar
    47    23    29   ar
    48    24    25    1
    49    24    26   ar
    50    26    27   ar
    51    26    54    1
    52    27    28   ar
    53    27    55    1
    54    28    29   ar
    55    28    56    1
    56    29    30    1
    57    31    32    2
    58    31    33   am
    59    33    34    1
    60    33    57    1
    61    34    58    1
    62    34    59    1
    63    35    36    1
    64    35    60    1
    65    35    61    1
    66    36    62    1
    67    36    63    1
@<TRIPOS>MOLECULE
AD3CC00077635-I00-C00
 65 69 0 0 0
SMALL
GASTEIGER

@<TRIPOS>ATOM
      1 C           3.7450    5.5600    0.9260 C.3     1  UNL1       -0.0471
      2 C           2.2410    5.5180    0.5570 C.3     1  UNL1        0.0135
      3 C           2.1170    6.2730   -0.7890 C.3     1  UNL1       -0.0471
      4 C           1.4600    6.3080    1.6280 C.3     1  UNL1       -0.0471
      5 N           1.7820    4.1030    0.4050 N.3     1  UNL1       -0.2974
      6 C           1.9900    3.2650    1.6000 C.3     1  UNL1       -0.0001
      7 C           1.7070    1.7880    1.3150 C.3     1  UNL1       -0.0333
      8 C           0.2840    1.5950    0.7830 C.3     1  UNL1       -0.0135
      9 C          -0.0210    0.1410    0.4660 C.ar    1  UNL1       -0.0416
     10 C           0.7050   -0.5700   -0.4950 C.ar    1  UNL1       -0.0498
     11 C           0.4300   -1.9190   -0.7830 C.ar    1  UNL1       -0.0071
     12 C           1.2490   -2.5880   -1.8120 C.ar    1  UNL1        0.0012
     13 C           0.8320   -2.5380   -3.1560 C.ar    1  UNL1       -0.0499
     14 C           1.5810   -3.1530   -4.1600 C.ar    1  UNL1       -0.0258
     15 C           2.7530   -3.8200   -3.8280 C.ar    1  UNL1        0.1248
     16 F           3.4690   -4.4100   -4.7930 F       1  UNL1       -0.2054
     17 C           3.1940   -3.8850   -2.5140 C.ar    1  UNL1       -0.0075
     18 C           2.4450   -3.2700   -1.5080 C.ar    1  UNL1        0.0514
     19 CL          3.0400   -3.3820    0.1130 Cl      1  UNL1       -0.0828
     20 C          -0.6160   -2.5710   -0.0860 C.ar    1  UNL1        0.0069
     21 C          -0.9480   -3.9800   -0.3390 C.ar    1  UNL1       -0.0469
     22 C          -1.9360   -4.5880    0.3220 C.ar    1  UNL1        0.0039
     23 C          -2.7480   -3.8800    1.3330 C.ar    1  UNL1        0.2563
     24 O          -3.6530   -4.4960    1.8950 O.2     1  UNL1       -0.2673
     25 N          -2.4220   -2.5510    1.5680 N.ar    1  UNL1       -0.2741
     26 C          -3.1920   -1.8440    2.5330 C.ar    1  UNL1        0.0866
     27 C          -2.8460   -1.8910    3.8950 C.ar    1  UNL1        0.0663
     28 CL         -1.4410   -2.7330    4.4520 Cl      1  UNL1       -0.0814
     29 C          -3.6280   -1.2300    4.8470 C.ar    1  UNL1       -0.0413
     30 C          -4.7660   -0.5260    4.4540 C.ar    1  UNL1       -0.0589
     31 C          -5.1260   -0.4820    3.1070 C.ar    1  UNL1       -0.0413
     32 C          -4.3490   -1.1410    2.1500 C.ar    1  UNL1        0.0663
     33 CL         -4.8530   -1.0440    0.4980 Cl      1  UNL1       -0.0814
     34 C          -1.3660   -1.8680    0.8830 C.ar    1  UNL1        0.0581
     35 C          -1.0530   -0.5210    1.1450 C.ar    1  UNL1       -0.0337
     36 C           0.0590    2.5100   -0.4230 C.3     1  UNL1       -0.0333
     37 C           0.3960    3.9640   -0.0800 C.3     1  UNL1       -0.0001
     38 H           4.3380    4.9380    0.2450 H       1  UNL1        0.0247
     39 H           4.1400    6.5810    0.8620 H       1  UNL1        0.0247
     40 H           3.9330    5.2240    1.9510 H       1  UNL1        0.0247
     41 H           1.0750    6.4760   -1.0590 H       1  UNL1        0.0247
     42 H           2.5810    5.7080   -1.6060 H       1  UNL1        0.0247
     43 H           2.6160    7.2490   -0.7440 H       1  UNL1        0.0247
     44 H           0.3930    6.3730    1.3920 H       1  UNL1        0.0247
     45 H           1.8340    7.3370    1.7000 H       1  UNL1        0.0247
     46 H           1.5620    5.8610    2.6220 H       1  UNL1        0.0247
     47 H           1.3560    3.6000    2.4300 H       1  UNL1        0.0427
     48 H           3.0280    3.3130    1.9430 H       1  UNL1        0.0427
     49 H           2.4490    1.4160    0.5960 H       1  UNL1        0.0283
     50 H           1.8460    1.2060    2.2350 H       1  UNL1        0.0283
     51 H          -0.4050    1.9230    1.5740 H       1  UNL1        0.0350
     52 H           1.5120   -0.0710   -1.0320 H       1  UNL1        0.0627
     53 H          -0.0860   -2.0150   -3.4230 H       1  UNL1        0.0625
     54 H           1.2580   -3.1150   -5.1960 H       1  UNL1        0.0646
     55 H           4.1150   -4.4130   -2.2870 H       1  UNL1        0.0661
     56 H          -0.3770   -4.5410   -1.0700 H       1  UNL1        0.0626
     57 H          -2.1910   -5.6260    0.1500 H       1  UNL1        0.0672
     58 H          -3.3580   -1.2660    5.9000 H       1  UNL1        0.0633
     59 H          -5.3770   -0.0180    5.1980 H       1  UNL1        0.0618
     60 H          -6.0200    0.0610    2.8090 H       1  UNL1        0.0633
     61 H          -1.6090    0.0410    1.8910 H       1  UNL1        0.0641
     62 H           0.6730    2.1930   -1.2760 H       1  UNL1        0.0283
     63 H          -0.9860    2.4470   -0.7520 H       1  UNL1        0.0283
     64 H           0.2370    4.5360   -0.9980 H       1  UNL1        0.0427
     65 H          -0.3190    4.3340    0.6650 H       1  UNL1        0.0427
@<TRIPOS>BOND
     1     2     1    1
     2     1    38    1
     3     1    39    1
     4     1    40    1
     5     2     3    1
     6     2     4    1
     7     2     5    1
     8     3    41    1
     9     3    42    1
    10     3    43    1
    11     4    44    1
    12     4    45    1
    13     4    46    1
    14     5     6    1
    15     5    37    1
    16     6     7    1
    17     6    47    1
    18     6    48    1
    19     7     8    1
    20     7    49    1
    21     7    50    1
    22     8     9    1
    23     8    36    1
    24     8    51    1
    25     9    10   ar
    26     9    35   ar
    27    10    11   ar
    28    10    52    1
    29    11    12    1
    30    11    20   ar
    31    12    13   ar
    32    12    18   ar
    33    13    14   ar
    34    13    53    1
    35    14    15   ar
    36    14    54    1
    37    15    16    1
    38    15    17   ar
    39    17    18   ar
    40    17    55    1
    41    18    19    1
    42    20    21   ar
    43    20    34   ar
    44    21    22   ar
    45    21    56    1
    46    22    23   ar
    47    22    57    1
    48    23    24    2
    49    23    25   ar
    50    25    26    1
    51    25    34   ar
    52    26    27   ar
    53    26    32   ar
    54    27    28    1
    55    27    29   ar
    56    29    30   ar
    57    29    58    1
    58    30    31   ar
    59    30    59    1
    60    31    32   ar
    61    31    60    1
    62    32    33    1
    63    34    35   ar
    64    35    61    1
    65    36    37    1
    66    36    62    1
    67    36    63    1
    68    37    64    1
    69    37    65    1
@<TRIPOS>MOLECULE
AD3CC00077642-I00-C00
 54 58 0 0 0
SMALL
GASTEIGER

@<TRIPOS>ATOM
      1 O           3.2350    2.9500   -2.8310 O.2     1  UNL1       -0.2519
      2 C           2.7760    2.3220   -1.8760 C.2     1  UNL1        0.3113
      3 N           3.3470    2.4930   -0.6490 N.am    1  UNL1       -0.2945
      4 C           3.2450    1.5000    0.3820 C.3     1  UNL1        0.0407
      5 C           1.9050    0.8260    0.4010 C.ar    1  UNL1       -0.0008
      6 C           1.4290    0.1640    1.5560 C.ar    1  UNL1       -0.0098
      7 C           2.1730    0.1650    2.8280 C.ar    1  UNL1        0.0008
      8 C           1.8870    1.1570    3.7840 C.ar    1  UNL1       -0.0526
      9 C           2.5670    1.1990    5.0040 C.ar    1  UNL1       -0.0611
     10 C           3.5430    0.2490    5.2910 C.ar    1  UNL1       -0.0603
     11 C           3.8390   -0.7450    4.3600 C.ar    1  UNL1       -0.0428
     12 C           3.1600   -0.7900    3.1370 C.ar    1  UNL1        0.0487
     13 CL          3.5830   -2.0520    2.0320 Cl      1  UNL1       -0.0829
     14 C           0.2040   -0.5220    1.4930 C.ar    1  UNL1       -0.0501
     15 C          -0.5430   -0.5780    0.3110 C.ar    1  UNL1       -0.0418
     16 C          -1.8560   -1.3400    0.2790 C.3     1  UNL1       -0.0135
     17 C          -3.0510   -0.4280   -0.0380 C.3     1  UNL1       -0.0336
     18 C          -4.3470   -1.2330   -0.1030 C.3     1  UNL1       -0.0036
     19 N          -4.2490   -2.3240   -1.0730 N.3     1  UNL1       -0.3159
     20 C          -3.1600   -3.2430   -0.7420 C.3     1  UNL1       -0.0036
     21 C          -1.8150   -2.5210   -0.7040 C.3     1  UNL1       -0.0336
     22 C          -0.0450    0.0760   -0.8250 C.ar    1  UNL1       -0.0361
     23 C           1.1730    0.7760   -0.7970 C.ar    1  UNL1        0.0484
     24 N           1.6960    1.4530   -1.9410 N.am    1  UNL1       -0.2213
     25 C           1.0400    1.2950   -3.1950 C.ar    1  UNL1        0.0793
     26 C           0.1770    2.2910   -3.6870 C.ar    1  UNL1        0.0641
     27 CL         -0.2160    3.7020   -2.7660 Cl      1  UNL1       -0.0816
     28 C          -0.4400    2.1410   -4.9330 C.ar    1  UNL1       -0.0415
     29 C          -0.2010    1.0040   -5.7040 C.ar    1  UNL1       -0.0589
     30 C           0.6590    0.0130   -5.2310 C.ar    1  UNL1       -0.0415
     31 C           1.2810    0.1560   -3.9860 C.ar    1  UNL1        0.0641
     32 CL          2.3570   -1.1020   -3.4810 Cl      1  UNL1       -0.0816
     33 H           4.1790    3.0660   -0.6860 H       1  UNL1        0.1506
     34 H           4.0290    0.7550    0.2040 H       1  UNL1        0.0513
     35 H           3.4540    2.0200    1.3210 H       1  UNL1        0.0513
     36 H           1.1270    1.9080    3.5760 H       1  UNL1        0.0624
     37 H           2.3320    1.9750    5.7290 H       1  UNL1        0.0618
     38 H           4.0710    0.2810    6.2410 H       1  UNL1        0.0618
     39 H           4.6010   -1.4860    4.5920 H       1  UNL1        0.0632
     40 H          -0.1620   -1.0320    2.3830 H       1  UNL1        0.0627
     41 H          -2.0300   -1.7610    1.2800 H       1  UNL1        0.0350
     42 H          -2.9040    0.0890   -0.9950 H       1  UNL1        0.0283
     43 H          -3.1420    0.3530    0.7270 H       1  UNL1        0.0283
     44 H          -4.5990   -1.6310    0.8880 H       1  UNL1        0.0424
     45 H          -5.1670   -0.5700   -0.3980 H       1  UNL1        0.0424
     46 H          -5.1300   -2.8380   -1.0910 H       1  UNL1        0.1219
     47 H          -3.3580   -3.7320    0.2200 H       1  UNL1        0.0424
     48 H          -3.1210   -4.0330   -1.5000 H       1  UNL1        0.0424
     49 H          -1.5650   -2.1780   -1.7160 H       1  UNL1        0.0283
     50 H          -1.0280   -3.2280   -0.4110 H       1  UNL1        0.0283
     51 H          -0.6370    0.0330   -1.7350 H       1  UNL1        0.0639
     52 H          -1.1130    2.9100   -5.3080 H       1  UNL1        0.0633
     53 H          -0.6800    0.8920   -6.6740 H       1  UNL1        0.0618
     54 H           0.8480   -0.8670   -5.8410 H       1  UNL1        0.0633
@<TRIPOS>BOND
     1     1     2    2
     2     2     3   am
     3     2    24   am
     4     3     4    1
     5     3    33    1
     6     4     5    1
     7     4    34    1
     8     4    35    1
     9     5     6   ar
    10     5    23   ar
    11     6     7    1
    12     6    14   ar
    13     7     8   ar
    14     7    12   ar
    15     8     9   ar
    16     8    36    1
    17     9    10   ar
    18     9    37    1
    19    10    11   ar
    20    10    38    1
    21    11    12   ar
    22    11    39    1
    23    12    13    1
    24    14    15   ar
    25    14    40    1
    26    15    16    1
    27    15    22   ar
    28    16    17    1
    29    16    21    1
    30    16    41    1
    31    17    18    1
    32    17    42    1
    33    17    43    1
    34    18    19    1
    35    18    44    1
    36    18    45    1
    37    19    20    1
    38    19    46    1
    39    20    21    1
    40    20    47    1
    41    20    48    1
    42    21    49    1
    43    21    50    1
    44    22    23   ar
    45    22    51    1
    46    23    24    1
    47    24    25    1
    48    25    26   ar
    49    25    31   ar
    50    26    27    1
    51    26    28   ar
    52    28    29   ar
    53    28    52    1
    54    29    30   ar
    55    29    53    1
    56    30    31   ar
    57    30    54    1
    58    31    32    1
@<TRIPOS>MOLECULE
AD3CC00077645-I00-C00
 65 69 0 0 0
SMALL
GASTEIGER

@<TRIPOS>ATOM
      1 C          -1.2700    4.4750    5.8240 C.3     1  UNL1        0.0817
      2 O          -0.6780    4.5310    4.5270 O.3     1  UNL1       -0.4668
      3 C          -1.4830    5.0760    3.5710 C.2     1  UNL1        0.3240
      4 O          -2.6130    5.5100    3.7730 O.2     1  UNL1       -0.2491
      5 C          -0.8090    5.0740    2.1880 C.3     1  UNL1        0.1055
      6 C           0.4260    5.9790    2.2820 C.3     1  UNL1       -0.0391
      7 N          -0.5160    3.6800    1.7280 N.3     1  UNL1       -0.2901
      8 C           0.2120    3.6650    0.4480 C.3     1  UNL1        0.0002
      9 C           0.5500    2.2410    0.0020 C.3     1  UNL1       -0.0333
     10 C          -0.7130    1.3760   -0.0980 C.3     1  UNL1       -0.0135
     11 C          -0.4130   -0.0500   -0.5240 C.ar    1  UNL1       -0.0416
     12 C          -0.8930   -0.5710   -1.6670 C.ar    1  UNL1       -0.0498
     13 C          -0.6100   -1.9520   -2.0700 C.ar    1  UNL1       -0.0071
     14 C          -1.1800   -2.4480   -3.3480 C.ar    1  UNL1        0.0012
     15 C          -0.4190   -2.2900   -4.5200 C.ar    1  UNL1       -0.0499
     16 C          -0.9170   -2.7290   -5.7470 C.ar    1  UNL1       -0.0258
     17 C          -2.1740   -3.3180   -5.8060 C.ar    1  UNL1        0.1248
     18 F          -2.6480   -3.7370   -6.9860 F       1  UNL1       -0.2054
     19 C          -2.9480   -3.4790   -4.6640 C.ar    1  UNL1       -0.0075
     20 C          -2.4540   -3.0420   -3.4340 C.ar    1  UNL1        0.0514
     21 CL         -3.4550   -3.2590   -2.0410 Cl      1  UNL1       -0.0828
     22 C           0.1660   -2.7400   -1.2720 C.ar    1  UNL1        0.0069
     23 C           0.4750   -4.1230   -1.6050 C.ar    1  UNL1       -0.0469
     24 C           1.2420   -4.8660   -0.8050 C.ar    1  UNL1        0.0039
     25 C           1.8200   -4.3270    0.4470 C.ar    1  UNL1        0.2563
     26 O           2.5380   -5.0750    1.1130 O.2     1  UNL1       -0.2673
     27 N           1.5170   -3.0020    0.7800 N.ar    1  UNL1       -0.2741
     28 C           2.1120   -2.5410    2.0000 C.ar    1  UNL1        0.0866
     29 C           1.4880   -2.7900    3.2350 C.ar    1  UNL1        0.0663
     30 CL         -0.0350   -3.6030    3.3420 Cl      1  UNL1       -0.0814
     31 C           2.0780   -2.3540    4.4260 C.ar    1  UNL1       -0.0413
     32 C           3.2940   -1.6720    4.3980 C.ar    1  UNL1       -0.0589
     33 C           3.9240   -1.4230    3.1790 C.ar    1  UNL1       -0.0413
     34 C           3.3400   -1.8560    1.9840 C.ar    1  UNL1        0.0663
     35 CL          4.1780   -1.5150    0.5090 Cl      1  UNL1       -0.0814
     36 C           0.7110   -2.1720   -0.0150 C.ar    1  UNL1        0.0581
     37 C           0.4160   -0.8970    0.3210 C.ar    1  UNL1       -0.0337
     38 C          -1.4950    1.4480    1.2190 C.3     1  UNL1       -0.0333
     39 C          -1.7670    2.9010    1.6150 C.3     1  UNL1        0.0002
     40 H          -0.5500    4.0140    6.5060 H       1  UNL1        0.0661
     41 H          -1.4940    5.4830    6.1870 H       1  UNL1        0.0661
     42 H          -2.1740    3.8580    5.8080 H       1  UNL1        0.0661
     43 H          -1.5160    5.5450    1.4910 H       1  UNL1        0.0575
     44 H           0.7970    6.2560    1.2910 H       1  UNL1        0.0250
     45 H           0.1890    6.9100    2.8110 H       1  UNL1        0.0250
     46 H           1.2400    5.4910    2.8310 H       1  UNL1        0.0250
     47 H           1.1650    4.1950    0.5430 H       1  UNL1        0.0427
     48 H          -0.3690    4.1710   -0.3340 H       1  UNL1        0.0427
     49 H           1.0580    2.2780   -0.9700 H       1  UNL1        0.0283
     50 H           1.2650    1.8090    0.7140 H       1  UNL1        0.0283
     51 H          -1.3490    1.8340   -0.8700 H       1  UNL1        0.0350
     52 H          -1.5210    0.0200   -2.3280 H       1  UNL1        0.0627
     53 H           0.5650   -1.8260   -4.4770 H       1  UNL1        0.0625
     54 H          -0.3340   -2.6130   -6.6560 H       1  UNL1        0.0646
     55 H          -3.9270   -3.9410   -4.7450 H       1  UNL1        0.0661
     56 H           0.0770   -4.5740   -2.5070 H       1  UNL1        0.0626
     57 H           1.4810   -5.8980   -1.0320 H       1  UNL1        0.0672
     58 H           1.5930   -2.5460    5.3810 H       1  UNL1        0.0633
     59 H           3.7520   -1.3370    5.3260 H       1  UNL1        0.0618
     60 H           4.8750   -0.8950    3.1650 H       1  UNL1        0.0633
     61 H           0.7880   -0.4490    1.2360 H       1  UNL1        0.0641
     62 H          -0.9440    0.9570    2.0310 H       1  UNL1        0.0283
     63 H          -2.4500    0.9170    1.1180 H       1  UNL1        0.0283
     64 H          -2.4450    3.3620    0.8850 H       1  UNL1        0.0427
     65 H          -2.2940    2.8750    2.5760 H       1  UNL1        0.0427
@<TRIPOS>BOND
     1     1     2    1
     2     1    40    1
     3     1    41    1
     4     1    42    1
     5     2     3    1
     6     3     4    2
     7     3     5    1
     8     5     6    1
     9     5     7    1
    10     5    43    1
    11     6    44    1
    12     6    45    1
    13     6    46    1
    14     7     8    1
    15     7    39    1
    16     8     9    1
    17     8    47    1
    18     8    48    1
    19     9    10    1
    20     9    49    1
    21     9    50    1
    22    10    11    1
    23    10    38    1
    24    10    51    1
    25    11    12   ar
    26    11    37   ar
    27    12    13   ar
    28    12    52    1
    29    13    14    1
    30    13    22   ar
    31    14    15   ar
    32    14    20   ar
    33    15    16   ar
    34    15    53    1
    35    16    17   ar
    36    16    54    1
    37    17    18    1
    38    17    19   ar
    39    19    20   ar
    40    19    55    1
    41    20    21    1
    42    22    23   ar
    43    22    36   ar
    44    23    24   ar
    45    23    56    1
    46    24    25   ar
    47    24    57    1
    48    25    26    2
    49    25    27   ar
    50    27    28    1
    51    27    36   ar
    52    28    29   ar
    53    28    34   ar
    54    29    30    1
    55    29    31   ar
    56    31    32   ar
    57    31    58    1
    58    32    33   ar
    59    32    59    1
    60    33    34   ar
    61    33    60    1
    62    34    35    1
    63    36    37   ar
    64    37    61    1
    65    38    39    1
    66    38    62    1
    67    38    63    1
    68    39    64    1
    69    39    65    1
@<TRIPOS>MOLECULE
AD3CC00077680-I00-C00
 45 48 0 0 0
SMALL
GASTEIGER

@<TRIPOS>ATOM
      1 C           1.4840    1.2450   -2.9420 C.3     1  UNL1        0.0167
      2 N           0.9950    0.0090   -2.3560 N.ar    1  UNL1       -0.2953
      3 C           0.5930   -1.0340   -3.1770 C.ar    1  UNL1        0.2604
      4 O           0.6350   -0.9850   -4.4050 O.2     1  UNL1       -0.2670
      5 C           0.0960   -2.2810   -2.5010 C.ar    1  UNL1        0.0488
      6 C          -0.3750   -3.4220   -3.3070 C.ar    1  UNL1        0.0056
      7 C           0.5480   -4.4140   -3.6750 C.ar    1  UNL1       -0.0525
      8 C           0.1430   -5.5140   -4.4340 C.ar    1  UNL1       -0.0611
      9 C          -1.1860   -5.6360   -4.8320 C.ar    1  UNL1       -0.0603
     10 C          -2.1140   -4.6570   -4.4740 C.ar    1  UNL1       -0.0428
     11 C          -1.7120   -3.5540   -3.7140 C.ar    1  UNL1        0.0488
     12 CL         -2.9150   -2.3860   -3.2890 Cl      1  UNL1       -0.0829
     13 C           0.0620   -2.3690   -1.1620 C.ar    1  UNL1       -0.0367
     14 C           0.5020   -1.2420   -0.3590 C.ar    1  UNL1        0.0365
     15 C           0.4940   -1.2450    1.0160 C.ar    1  UNL1        0.0418
     16 N           0.8990   -0.2030    1.7670 N.ar    1  UNL1       -0.2222
     17 C           1.3340    0.8820    1.1160 C.ar    1  UNL1        0.2173
     18 N           1.7790    1.9890    1.8140 N.pl3   1  UNL1       -0.3104
     19 C           1.1780    2.2510    3.1160 C.3     1  UNL1        0.0275
     20 C           2.0310    3.2950    3.8450 C.3     1  UNL1       -0.0109
     21 C           1.3700    3.6910    5.1550 C.3     1  UNL1        0.0493
     22 O           0.0480    4.1770    4.9240 O.3     1  UNL1       -0.3796
     23 C          -0.7960    3.1890    4.3340 C.3     1  UNL1        0.0493
     24 C          -0.2590    2.7630    2.9760 C.3     1  UNL1       -0.0109
     25 N           1.3720    0.9860   -0.2160 N.ar    1  UNL1       -0.1964
     26 C           0.9580   -0.0750   -0.9410 C.ar    1  UNL1        0.1482
     27 H           1.4650    1.2100   -4.0340 H       1  UNL1        0.0457
     28 H           0.8520    2.0780   -2.6170 H       1  UNL1        0.0457
     29 H           2.5180    1.4140   -2.6230 H       1  UNL1        0.0457
     30 H           1.5940   -4.3290   -3.3830 H       1  UNL1        0.0624
     31 H           0.8690   -6.2720   -4.7210 H       1  UNL1        0.0618
     32 H          -1.5000   -6.4900   -5.4280 H       1  UNL1        0.0618
     33 H          -3.1480   -4.7580   -4.7920 H       1  UNL1        0.0632
     34 H          -0.3000   -3.2590   -0.6560 H       1  UNL1        0.0633
     35 H           0.1540   -2.1070    1.5830 H       1  UNL1        0.0838
     36 H           1.7950    2.7690    1.1650 H       1  UNL1        0.1492
     37 H           1.1840    1.3400    3.7300 H       1  UNL1        0.0500
     38 H           3.0400    2.9080    4.0300 H       1  UNL1        0.0305
     39 H           2.1380    4.1860    3.2120 H       1  UNL1        0.0305
     40 H           1.9400    4.4930    5.6340 H       1  UNL1        0.0560
     41 H           1.3320    2.8480    5.8560 H       1  UNL1        0.0560
     42 H          -1.7920    3.6280    4.2190 H       1  UNL1        0.0560
     43 H          -0.8890    2.3340    5.0140 H       1  UNL1        0.0560
     44 H          -0.2730    3.6250    2.2960 H       1  UNL1        0.0305
     45 H          -0.9110    1.9980    2.5420 H       1  UNL1        0.0305
@<TRIPOS>BOND
     1     1     2    1
     2     1    27    1
     3     1    28    1
     4     1    29    1
     5     2     3   ar
     6     2    26   ar
     7     3     4    2
     8     3     5   ar
     9     5     6    1
    10     5    13   ar
    11     6     7   ar
    12     6    11   ar
    13     7     8   ar
    14     7    30    1
    15     8     9   ar
    16     8    31    1
    17     9    10   ar
    18     9    32    1
    19    10    11   ar
    20    10    33    1
    21    11    12    1
    22    13    14   ar
    23    13    34    1
    24    14    15   ar
    25    14    26   ar
    26    15    16   ar
    27    15    35    1
    28    16    17   ar
    29    17    18    1
    30    17    25   ar
    31    18    19    1
    32    18    36    1
    33    19    20    1
    34    19    24    1
    35    19    37    1
    36    20    21    1
    37    20    38    1
    38    20    39    1
    39    21    22    1
    40    21    40    1
    41    21    41    1
    42    22    23    1
    43    23    24    1
    44    23    42    1
    45    23    43    1
    46    24    44    1
    47    24    45    1
    48    25    26   ar
@<TRIPOS>MOLECULE
AD3CC00078964-I00-C01
 54 56 0 0 0
SMALL
GASTEIGER

@<TRIPOS>ATOM
      1 C           5.9090    0.0190   -1.1610 C.3     1  UNL1       -0.0154
      2 N           4.4750    0.2100   -1.3480 N.3     1  UNL1       -0.3112
      3 C           4.1210    0.0300   -2.7780 C.3     1  UNL1        0.0730
      4 C           2.6230    0.2840   -2.9800 C.2     1  UNL1        0.2269
      5 O           1.9620   -0.2850   -3.8420 O.2     1  UNL1       -0.2744
      6 N           2.1140    1.2370   -2.1200 N.am    1  UNL1       -0.3142
      7 C           0.6970    1.5030   -2.0070 C.3     1  UNL1        0.0131
      8 C          -0.0200    0.4610   -1.1520 C.3     1  UNL1       -0.0212
      9 C           0.3620    0.5770    0.3280 C.3     1  UNL1        0.0201
     10 N          -0.1640   -0.5720    1.0980 N.pl3   1  UNL1       -0.2825
     11 C          -1.5430   -0.6880    1.3140 C.ar    1  UNL1        0.1467
     12 C          -2.0780   -1.9680    1.8510 C.ar    1  UNL1       -0.0145
     13 C          -3.3890   -2.0780    2.0460 C.ar    1  UNL1        0.0080
     14 C          -4.3010   -0.9570    1.7460 C.ar    1  UNL1        0.2720
     15 O          -5.4940   -1.1290    1.9900 O.2     1  UNL1       -0.2658
     16 N          -3.6980    0.1970    1.2410 N.ar    1  UNL1       -0.1936
     17 C          -4.4540    1.3420    0.8070 C.ar    1  UNL1        0.0875
     18 C          -5.7390    1.1530    0.2590 C.ar    1  UNL1       -0.0347
     19 C          -6.5010    2.2210   -0.2290 C.ar    1  UNL1       -0.0597
     20 C          -5.9980    3.5130   -0.1790 C.ar    1  UNL1       -0.0603
     21 C          -4.7380    3.7360    0.3690 C.ar    1  UNL1       -0.0413
     22 C          -3.9690    2.6690    0.8630 C.ar    1  UNL1        0.0664
     23 CL         -2.4880    3.1340    1.6410 Cl      1  UNL1       -0.0813
     24 N          -2.3440    0.3020    1.0230 N.ar    1  UNL1       -0.1478
     25 C           0.7470   -0.9330    2.1390 C.ar    1  UNL1        0.0536
     26 C           0.4980   -0.5260    3.4630 C.ar    1  UNL1       -0.0389
     27 C           1.3780   -0.8580    4.4960 C.ar    1  UNL1       -0.0599
     28 C           2.5230   -1.6030    4.2260 C.ar    1  UNL1       -0.0603
     29 C           2.7920   -2.0160    2.9220 C.ar    1  UNL1       -0.0416
     30 C           1.9140   -1.6850    1.8840 C.ar    1  UNL1        0.0623
     31 CL          2.3010   -2.2580    0.2980 Cl      1  UNL1       -0.0816
     32 H           6.2250   -0.9820   -1.4720 H       1  UNL1        0.0388
     33 H           6.4820    0.7670   -1.7180 H       1  UNL1        0.0388
     34 H           6.1550    0.1360   -0.1010 H       1  UNL1        0.0388
     35 H           3.9810   -0.5160   -0.8200 H       1  UNL1        0.1221
     36 H           4.6670    0.7400   -3.4080 H       1  UNL1        0.0520
     37 H           4.3410   -0.9950   -3.0960 H       1  UNL1        0.0520
     38 H           2.7590    1.5320   -1.3900 H       1  UNL1        0.1487
     39 H           0.2660    1.5050   -3.0140 H       1  UNL1        0.0462
     40 H           0.5800    2.5060   -1.5850 H       1  UNL1        0.0462
     41 H           0.2040   -0.5480   -1.5180 H       1  UNL1        0.0296
     42 H          -1.1000    0.6030   -1.2690 H       1  UNL1        0.0296
     43 H          -0.0110    1.5200    0.7480 H       1  UNL1        0.0469
     44 H           1.4550    0.6330    0.4040 H       1  UNL1        0.0469
     45 H          -1.3930   -2.7810    2.0480 H       1  UNL1        0.0654
     46 H          -3.8430   -2.9830    2.4270 H       1  UNL1        0.0673
     47 H          -6.1650    0.1570    0.1620 H       1  UNL1        0.0639
     48 H          -7.4850    2.0330   -0.6520 H       1  UNL1        0.0618
     49 H          -6.5870    4.3460   -0.5550 H       1  UNL1        0.0618
     50 H          -4.3610    4.7550    0.4280 H       1  UNL1        0.0633
     51 H          -0.3800    0.0740    3.6970 H       1  UNL1        0.0637
     52 H           1.1690   -0.5300    5.5120 H       1  UNL1        0.0618
     53 H           3.2070   -1.8610    5.0310 H       1  UNL1        0.0618
     54 H           3.6860   -2.6010    2.7200 H       1  UNL1        0.0633
@<TRIPOS>BOND
     1     1     2    1
     2     1    32    1
     3     1    33    1
     4     1    34    1
     5     2     3    1
     6     2    35    1
     7     3     4    1
     8     3    36    1
     9     3    37    1
    10     4     5    2
    11     4     6   am
    12     6     7    1
    13     6    38    1
    14     7     8    1
    15     7    39    1
    16     7    40    1
    17     8     9    1
    18     8    41    1
    19     8    42    1
    20     9    10    1
    21     9    43    1
    22     9    44    1
    23    10    11    1
    24    10    25    1
    25    11    12   ar
    26    11    24   ar
    27    12    13   ar
    28    12    45    1
    29    13    14   ar
    30    13    46    1
    31    14    15    2
    32    14    16   ar
    33    16    17    1
    34    16    24   ar
    35    17    18   ar
    36    17    22   ar
    37    18    19   ar
    38    18    47    1
    39    19    20   ar
    40    19    48    1
    41    20    21   ar
    42    20    49    1
    43    21    22   ar
    44    21    50    1
    45    22    23    1
    46    25    26   ar
    47    25    30   ar
    48    26    27   ar
    49    26    51    1
    50    27    28   ar
    51    27    52    1
    52    28    29   ar
    53    28    53    1
    54    29    30   ar
    55    29    54    1
    56    30    31    1
@<TRIPOS>MOLECULE
AD3CC00078965-I00-C04
 61 64 0 0 0
SMALL
GASTEIGER

@<TRIPOS>ATOM
      1 O          -3.0170    0.0570   -0.8810 O.2     1  UNL1       -0.2755
      2 C          -2.5710    0.7160   -1.8160 C.2     1  UNL1        0.2162
      3 N          -2.0620    0.1260   -2.9510 N.am    1  UNL1       -0.3150
      4 C          -2.0310   -1.3100   -3.1330 C.3     1  UNL1        0.0130
      5 C          -0.7730   -1.9660   -2.5710 C.3     1  UNL1       -0.0212
      6 C          -0.7850   -2.0940   -1.0410 C.3     1  UNL1        0.0201
      7 N           0.2080   -3.1130   -0.6280 N.pl3   1  UNL1       -0.2825
      8 C           1.5720   -2.8230   -0.6990 C.ar    1  UNL1        0.1467
      9 C           2.5170   -3.9690   -0.7800 C.ar    1  UNL1       -0.0145
     10 C           3.8160   -3.7170   -0.9160 C.ar    1  UNL1        0.0080
     11 C           4.3200   -2.3310   -0.9390 C.ar    1  UNL1        0.2720
     12 O           5.5340   -2.1750   -1.0560 O.2     1  UNL1       -0.2658
     13 N           3.3560   -1.3360   -0.7740 N.ar    1  UNL1       -0.1936
     14 C           3.6910    0.0560   -0.7420 C.ar    1  UNL1        0.0875
     15 C           4.6980    0.5450   -1.5960 C.ar    1  UNL1       -0.0347
     16 C           5.0350    1.9020   -1.6280 C.ar    1  UNL1       -0.0597
     17 C           4.3780    2.8020   -0.7980 C.ar    1  UNL1       -0.0603
     18 C           3.3930    2.3410    0.0730 C.ar    1  UNL1       -0.0413
     19 C           3.0490    0.9810    0.1090 C.ar    1  UNL1        0.0664
     20 CL          1.9200    0.5250    1.3470 Cl      1  UNL1       -0.0813
     21 N           2.0020   -1.5900   -0.7150 N.ar    1  UNL1       -0.1478
     22 C          -0.2760   -3.8570    0.4920 C.ar    1  UNL1        0.0536
     23 C           0.1570   -3.5370    1.7920 C.ar    1  UNL1       -0.0389
     24 C          -0.3090   -4.2470    2.9010 C.ar    1  UNL1       -0.0599
     25 C          -1.2160   -5.2900    2.7310 C.ar    1  UNL1       -0.0603
     26 C          -1.6560   -5.6280    1.4520 C.ar    1  UNL1       -0.0416
     27 C          -1.1920   -4.9190    0.3400 C.ar    1  UNL1        0.0623
     28 CL         -1.7430   -5.4220   -1.2220 Cl      1  UNL1       -0.0816
     29 C          -2.5750    2.2480   -1.8440 C.3     1  UNL1        0.0378
     30 C          -3.1290    2.8280   -0.5350 C.3     1  UNL1       -0.0293
     31 C          -2.1330    2.6940    0.6180 C.3     1  UNL1       -0.0034
     32 N          -0.8350    3.2840    0.2810 N.3     1  UNL1       -0.3159
     33 C          -0.2620    2.6680   -0.9140 C.3     1  UNL1       -0.0034
     34 C          -1.1850    2.8370   -2.1170 C.3     1  UNL1       -0.0293
     35 H          -1.7930    0.7080   -3.7330 H       1  UNL1        0.1487
     36 H          -2.0680   -1.4780   -4.2150 H       1  UNL1        0.0462
     37 H          -2.9340   -1.7550   -2.7000 H       1  UNL1        0.0462
     38 H           0.1190   -1.4160   -2.8950 H       1  UNL1        0.0296
     39 H          -0.6970   -2.9690   -3.0110 H       1  UNL1        0.0296
     40 H          -1.7960   -2.3800   -0.7230 H       1  UNL1        0.0469
     41 H          -0.5680   -1.1300   -0.5650 H       1  UNL1        0.0469
     42 H           2.1170   -4.9740   -0.7610 H       1  UNL1        0.0654
     43 H           4.5540   -4.5040   -1.0010 H       1  UNL1        0.0673
     44 H           5.2200   -0.1230   -2.2780 H       1  UNL1        0.0639
     45 H           5.8120    2.2500   -2.3050 H       1  UNL1        0.0618
     46 H           4.6400    3.8560   -0.8170 H       1  UNL1        0.0618
     47 H           2.9060    3.0470    0.7410 H       1  UNL1        0.0633
     48 H           0.8490   -2.7110    1.9510 H       1  UNL1        0.0637
     49 H           0.0310   -3.9770    3.8980 H       1  UNL1        0.0618
     50 H          -1.5800   -5.8400    3.5950 H       1  UNL1        0.0618
     51 H          -2.3600   -6.4470    1.3270 H       1  UNL1        0.0633
     52 H          -3.2500    2.5330   -2.6610 H       1  UNL1        0.0395
     53 H          -3.3560    3.8920   -0.6880 H       1  UNL1        0.0285
     54 H          -4.0730    2.3430   -0.2620 H       1  UNL1        0.0285
     55 H          -2.5350    3.2120    1.4960 H       1  UNL1        0.0424
     56 H          -2.0020    1.6440    0.9060 H       1  UNL1        0.0424
     57 H          -0.2000    3.1310    1.0650 H       1  UNL1        0.1219
     58 H           0.6950    3.1530   -1.1330 H       1  UNL1        0.0424
     59 H          -0.0550    1.6070   -0.7380 H       1  UNL1        0.0424
     60 H          -0.7140    2.3860   -2.9960 H       1  UNL1        0.0285
     61 H          -1.2910    3.9070   -2.3420 H       1  UNL1        0.0285
@<TRIPOS>BOND
     1     1     2    2
     2     2     3   am
     3     2    29    1
     4     3     4    1
     5     3    35    1
     6     4     5    1
     7     4    36    1
     8     4    37    1
     9     5     6    1
    10     5    38    1
    11     5    39    1
    12     6     7    1
    13     6    40    1
    14     6    41    1
    15     7     8    1
    16     7    22    1
    17     8     9   ar
    18     8    21   ar
    19     9    10   ar
    20     9    42    1
    21    10    11   ar
    22    10    43    1
    23    11    12    2
    24    11    13   ar
    25    13    14    1
    26    13    21   ar
    27    14    15   ar
    28    14    19   ar
    29    15    16   ar
    30    15    44    1
    31    16    17   ar
    32    16    45    1
    33    17    18   ar
    34    17    46    1
    35    18    19   ar
    36    18    47    1
    37    19    20    1
    38    22    23   ar
    39    22    27   ar
    40    23    24   ar
    41    23    48    1
    42    24    25   ar
    43    24    49    1
    44    25    26   ar
    45    25    50    1
    46    26    27   ar
    47    26    51    1
    48    27    28    1
    49    29    30    1
    50    29    34    1
    51    29    52    1
    52    30    31    1
    53    30    53    1
    54    30    54    1
    55    31    32    1
    56    31    55    1
    57    31    56    1
    58    32    33    1
    59    32    57    1
    60    33    34    1
    61    33    58    1
    62    33    59    1
    63    34    60    1
    64    34    61    1
@<TRIPOS>MOLECULE
AD3CC00079018-I00-C00
 42 45 0 0 0
SMALL
GASTEIGER

@<TRIPOS>ATOM
      1 C           0.5630   -4.3790    0.7370 C.3     1  UNL1        0.0003
      2 N           1.2130   -3.2550    1.3750 N.pl3   1  UNL1       -0.3165
      3 C           0.6750   -2.0210    1.0380 C.ar    1  UNL1        0.2172
      4 N           0.6770   -1.1060    2.0080 N.ar    1  UNL1       -0.2140
      5 C           0.1500    0.1040    1.7270 C.ar    1  UNL1        0.0839
      6 C           0.1780    1.0430    2.8550 C.ar    1  UNL1        0.0192
      7 C           1.3900    1.6830    3.1800 C.ar    1  UNL1       -0.0512
      8 C           1.4660    2.5900    4.2400 C.ar    1  UNL1       -0.0611
      9 C           0.3340    2.8700    4.9990 C.ar    1  UNL1       -0.0603
     10 C          -0.8730    2.2380    4.7040 C.ar    1  UNL1       -0.0427
     11 C          -0.9510    1.3280    3.6430 C.ar    1  UNL1        0.0501
     12 CL         -2.4820    0.5770    3.3480 Cl      1  UNL1       -0.0829
     13 C          -0.3470    0.4280    0.4780 C.ar    1  UNL1        0.0364
     14 C          -0.3110   -0.5810   -0.4590 C.ar    1  UNL1        0.1436
     15 N           0.1920   -1.8030   -0.1850 N.ar    1  UNL1       -0.1984
     16 N          -0.8150   -0.3130   -1.7580 N.am    1  UNL1       -0.2050
     17 C          -0.8220   -1.3970   -2.6790 C.ar    1  UNL1        0.0807
     18 C          -1.8000   -2.4050   -2.5900 C.ar    1  UNL1        0.0642
     19 CL         -3.0560   -2.3650   -1.3960 Cl      1  UNL1       -0.0816
     20 C          -1.8160   -3.4660   -3.5020 C.ar    1  UNL1       -0.0415
     21 C          -0.8600   -3.5350   -4.5140 C.ar    1  UNL1       -0.0589
     22 C           0.1150   -2.5430   -4.6160 C.ar    1  UNL1       -0.0415
     23 C           0.1370   -1.4790   -3.7060 C.ar    1  UNL1        0.0642
     24 CL          1.4240   -0.3310   -3.8610 Cl      1  UNL1       -0.0816
     25 C          -1.1520    0.9560   -2.1870 C.2     1  UNL1        0.3124
     26 O          -1.5600    1.2380   -3.3130 O.2     1  UNL1       -0.2519
     27 N          -1.0050    1.9640   -1.2770 N.am    1  UNL1       -0.2944
     28 C          -0.9760    1.7290    0.1400 C.3     1  UNL1        0.0436
     29 H          -0.5110   -4.3980    0.9500 H       1  UNL1        0.0426
     30 H           0.7190   -4.3740   -0.3470 H       1  UNL1        0.0426
     31 H           0.9950   -5.3080    1.1230 H       1  UNL1        0.0426
     32 H           1.2300   -3.2830    2.3890 H       1  UNL1        0.1486
     33 H           2.2890    1.4650    2.6050 H       1  UNL1        0.0625
     34 H           2.4130    3.0710    4.4750 H       1  UNL1        0.0618
     35 H           0.3930    3.5720    5.8270 H       1  UNL1        0.0618
     36 H          -1.7510    2.4520    5.3100 H       1  UNL1        0.0632
     37 H          -2.5780   -4.2380   -3.4330 H       1  UNL1        0.0633
     38 H          -0.8740   -4.3580   -5.2240 H       1  UNL1        0.0618
     39 H           0.8620   -2.6050   -5.4030 H       1  UNL1        0.0633
     40 H          -1.3450    2.8540   -1.6200 H       1  UNL1        0.1506
     41 H          -2.0130    1.7500    0.4920 H       1  UNL1        0.0514
     42 H          -0.4330    2.5700    0.5810 H       1  UNL1        0.0514
@<TRIPOS>BOND
     1     1     2    1
     2     1    29    1
     3     1    30    1
     4     1    31    1
     5     2     3    1
     6     2    32    1
     7     3     4   ar
     8     3    15   ar
     9     4     5   ar
    10     5     6    1
    11     5    13   ar
    12     6     7   ar
    13     6    11   ar
    14     7     8   ar
    15     7    33    1
    16     8     9   ar
    17     8    34    1
    18     9    10   ar
    19     9    35    1
    20    10    11   ar
    21    10    36    1
    22    11    12    1
    23    13    14   ar
    24    13    28    1
    25    14    15   ar
    26    14    16    1
    27    16    17    1
    28    16    25   am
    29    17    18   ar
    30    17    23   ar
    31    18    19    1
    32    18    20   ar
    33    20    21   ar
    34    20    37    1
    35    21    22   ar
    36    21    38    1
    37    22    23   ar
    38    22    39    1
    39    23    24    1
    40    25    26    2
    41    25    27   am
    42    27    28    1
    43    27    40    1
    44    28    41    1
    45    28    42    1
@<TRIPOS>MOLECULE
AD3CC00079021-I00-C00
 54 57 0 0 0
SMALL
GASTEIGER

@<TRIPOS>ATOM
      1 C           4.6110   -0.6820    0.5240 C.3     1  UNL1       -0.0586
      2 C           3.9090   -1.0460   -0.7960 C.3     1  UNL1       -0.0222
      3 C           4.0800   -2.5510   -1.0680 C.3     1  UNL1       -0.0586
      4 C           4.5810   -0.2650   -1.9410 C.3     1  UNL1       -0.0586
      5 C           2.4110   -0.6490   -0.7530 C.3     1  UNL1        0.0167
      6 N           1.7060   -1.3070    0.3370 N.pl3   1  UNL1       -0.3129
      7 C           0.3520   -1.0070    0.4040 C.ar    1  UNL1        0.2175
      8 N          -0.4410   -1.9980    0.8100 N.ar    1  UNL1       -0.2140
      9 C          -1.7660   -1.7550    0.8700 C.ar    1  UNL1        0.0839
     10 C          -2.5640   -2.9050    1.3100 C.ar    1  UNL1        0.0192
     11 C          -2.5990   -3.2280    2.6810 C.ar    1  UNL1       -0.0512
     12 C          -3.3500   -4.3080    3.1500 C.ar    1  UNL1       -0.0611
     13 C          -4.0750   -5.0910    2.2570 C.ar    1  UNL1       -0.0603
     14 C          -4.0450   -4.7990    0.8940 C.ar    1  UNL1       -0.0427
     15 C          -3.2920   -3.7170    0.4220 C.ar    1  UNL1        0.0501
     16 CL         -3.2970   -3.4270   -1.2840 Cl      1  UNL1       -0.0829
     17 C          -2.3120   -0.5210    0.5630 C.ar    1  UNL1        0.0364
     18 C          -1.4170    0.4410    0.1500 C.ar    1  UNL1        0.1436
     19 N          -0.0920    0.2030    0.0660 N.ar    1  UNL1       -0.1984
     20 N          -1.9150    1.7250   -0.1900 N.am    1  UNL1       -0.2050
     21 C          -0.9670    2.6710   -0.6730 C.ar    1  UNL1        0.0807
     22 C          -0.4760    2.5830   -1.9900 C.ar    1  UNL1        0.0642
     23 CL         -1.0210    1.3650   -3.0960 Cl      1  UNL1       -0.0816
     24 C           0.4500    3.5160   -2.4680 C.ar    1  UNL1       -0.0415
     25 C           0.8960    4.5470   -1.6440 C.ar    1  UNL1       -0.0589
     26 C           0.4190    4.6470   -0.3380 C.ar    1  UNL1       -0.0415
     27 C          -0.5070    3.7170    0.1480 C.ar    1  UNL1        0.0642
     28 CL         -0.9900    3.8710    1.8040 Cl      1  UNL1       -0.0816
     29 C          -3.2150    2.1180    0.0620 C.2     1  UNL1        0.3124
     30 O          -3.6790    3.2300   -0.1860 O.2     1  UNL1       -0.2519
     31 N          -4.0300    1.1860    0.6400 N.am    1  UNL1       -0.2944
     32 C          -3.7660   -0.2240    0.5690 C.3     1  UNL1        0.0436
     33 H           5.6840   -0.8950    0.4720 H       1  UNL1        0.0235
     34 H           4.2060   -1.2510    1.3680 H       1  UNL1        0.0235
     35 H           4.4940    0.3840    0.7520 H       1  UNL1        0.0235
     36 H           3.5520   -2.8490   -1.9810 H       1  UNL1        0.0235
     37 H           5.1370   -2.8100   -1.1960 H       1  UNL1        0.0235
     38 H           3.6960   -3.1610   -0.2440 H       1  UNL1        0.0235
     39 H           5.6470   -0.5080   -2.0160 H       1  UNL1        0.0235
     40 H           4.1180   -0.5000   -2.9060 H       1  UNL1        0.0235
     41 H           4.4980    0.8170   -1.7850 H       1  UNL1        0.0235
     42 H           2.3450    0.4420   -0.6370 H       1  UNL1        0.0467
     43 H           1.9380   -0.9060   -1.7110 H       1  UNL1        0.0467
     44 H           1.7530   -2.3210    0.3430 H       1  UNL1        0.1489
     45 H          -2.0250   -2.6330    3.3910 H       1  UNL1        0.0625
     46 H          -3.3600   -4.5400    4.2130 H       1  UNL1        0.0618
     47 H          -4.6550   -5.9360    2.6200 H       1  UNL1        0.0618
     48 H          -4.6040   -5.4230    0.2020 H       1  UNL1        0.0632
     49 H           0.8200    3.4480   -3.4890 H       1  UNL1        0.0633
     50 H           1.6150    5.2730   -2.0180 H       1  UNL1        0.0618
     51 H           0.7770    5.4490    0.3030 H       1  UNL1        0.0633
     52 H          -4.9880    1.5020    0.7230 H       1  UNL1        0.1506
     53 H          -4.2690   -0.6750    1.4300 H       1  UNL1        0.0514
     54 H          -4.2310   -0.5950   -0.3500 H       1  UNL1        0.0514
@<TRIPOS>BOND
     1     2     1    1
     2     1    33    1
     3     1    34    1
     4     1    35    1
     5     2     3    1
     6     2     4    1
     7     2     5    1
     8     3    36    1
     9     3    37    1
    10     3    38    1
    11     4    39    1
    12     4    40    1
    13     4    41    1
    14     5     6    1
    15     5    42    1
    16     5    43    1
    17     6     7    1
    18     6    44    1
    19     7     8   ar
    20     7    19   ar
    21     8     9   ar
    22     9    10    1
    23     9    17   ar
    24    10    11   ar
    25    10    15   ar
    26    11    12   ar
    27    11    45    1
    28    12    13   ar
    29    12    46    1
    30    13    14   ar
    31    13    47    1
    32    14    15   ar
    33    14    48    1
    34    15    16    1
    35    17    18   ar
    36    17    32    1
    37    18    19   ar
    38    18    20    1
    39    20    21    1
    40    20    29   am
    41    21    22   ar
    42    21    27   ar
    43    22    23    1
    44    22    24   ar
    45    24    25   ar
    46    24    49    1
    47    25    26   ar
    48    25    50    1
    49    26    27   ar
    50    26    51    1
    51    27    28    1
    52    29    30    2
    53    29    31   am
    54    31    32    1
    55    31    52    1
    56    32    53    1
    57    32    54    1
@<TRIPOS>MOLECULE
AD3CC00079026-I00-C00
 52 55 0 0 0
SMALL
GASTEIGER

@<TRIPOS>ATOM
      1 C          -4.7450   -0.2910    1.0330 C.3     1  UNL1       -0.0129
      2 N          -4.6790    0.4720   -0.2160 N.3     1  UNL1       -0.3051
      3 C          -5.9260    1.2170   -0.4070 C.3     1  UNL1       -0.0129
      4 C          -3.5330    1.4020   -0.2320 C.3     1  UNL1        0.0326
      5 C          -2.1590    0.7150   -0.2680 C.3     1  UNL1        0.1053
      6 O          -1.1600    1.7310   -0.3960 O.3     1  UNL1       -0.4611
      7 C           0.1170    1.2220   -0.4780 C.ar    1  UNL1        0.3203
      8 N           1.0710    2.1310   -0.6850 N.ar    1  UNL1       -0.1944
      9 C           2.3350    1.6700   -0.7820 C.ar    1  UNL1        0.0857
     10 C           3.3330    2.7160   -1.0410 C.ar    1  UNL1        0.0192
     11 C           3.7340    3.5530    0.0180 C.ar    1  UNL1       -0.0512
     12 C           4.6860    4.5570   -0.1750 C.ar    1  UNL1       -0.0611
     13 C           5.2500    4.7480   -1.4330 C.ar    1  UNL1       -0.0603
     14 C           4.8580    3.9400   -2.4990 C.ar    1  UNL1       -0.0427
     15 C           3.9040    2.9340   -2.3070 C.ar    1  UNL1        0.0501
     16 CL          3.4630    1.9810   -3.6830 Cl      1  UNL1       -0.0829
     17 C           2.6550    0.3310   -0.6230 C.ar    1  UNL1        0.0365
     18 C           1.5940   -0.5230   -0.4030 C.ar    1  UNL1        0.1453
     19 N           0.3200   -0.0890   -0.3300 N.ar    1  UNL1       -0.1788
     20 N           1.8640   -1.9060   -0.2330 N.am    1  UNL1       -0.2049
     21 C           0.7370   -2.7620   -0.0820 C.ar    1  UNL1        0.0807
     22 C           0.3670   -3.2540    1.1820 C.ar    1  UNL1        0.0642
     23 CL          1.1980   -2.7930    2.6300 Cl      1  UNL1       -0.0816
     24 C          -0.7440   -4.0940    1.3190 C.ar    1  UNL1       -0.0415
     25 C          -1.4960   -4.4530    0.2020 C.ar    1  UNL1       -0.0589
     26 C          -1.1400   -3.9720   -1.0570 C.ar    1  UNL1       -0.0415
     27 C          -0.0290   -3.1340   -1.2020 C.ar    1  UNL1        0.0642
     28 CL          0.3800   -2.6220   -2.8060 Cl      1  UNL1       -0.0816
     29 C           3.1400   -2.4080   -0.0680 C.2     1  UNL1        0.3124
     30 O           3.4150   -3.5910    0.1260 O.2     1  UNL1       -0.2519
     31 N           4.1590   -1.4990   -0.1150 N.am    1  UNL1       -0.2944
     32 C           4.0260   -0.2230   -0.7620 C.3     1  UNL1        0.0436
     33 H          -4.8010    0.3590    1.9130 H       1  UNL1        0.0391
     34 H          -5.6230   -0.9470    1.0350 H       1  UNL1        0.0391
     35 H          -3.8780   -0.9500    1.1400 H       1  UNL1        0.0391
     36 H          -6.7820    0.5330   -0.4410 H       1  UNL1        0.0391
     37 H          -5.9150    1.7490   -1.3650 H       1  UNL1        0.0391
     38 H          -6.0990    1.9470    0.3930 H       1  UNL1        0.0391
     39 H          -3.5970    2.0370   -1.1270 H       1  UNL1        0.0460
     40 H          -3.5730    2.0930    0.6210 H       1  UNL1        0.0460
     41 H          -1.9960    0.1570    0.6610 H       1  UNL1        0.0710
     42 H          -2.1180    0.0340   -1.1290 H       1  UNL1        0.0710
     43 H           3.2910    3.4280    1.0060 H       1  UNL1        0.0625
     44 H           4.9790    5.1950    0.6560 H       1  UNL1        0.0618
     45 H           5.9870    5.5330   -1.5870 H       1  UNL1        0.0618
     46 H           5.2940    4.1040   -3.4820 H       1  UNL1        0.0632
     47 H          -1.0310   -4.4670    2.3000 H       1  UNL1        0.0633
     48 H          -2.3590   -5.1060    0.3110 H       1  UNL1        0.0618
     49 H          -1.7270   -4.2600   -1.9260 H       1  UNL1        0.0633
     50 H           5.0720   -1.9350   -0.0760 H       1  UNL1        0.1506
     51 H           4.7770    0.4310   -0.3100 H       1  UNL1        0.0514
     52 H           4.2690   -0.3680   -1.8200 H       1  UNL1        0.0514
@<TRIPOS>BOND
     1     1     2    1
     2     1    33    1
     3     1    34    1
     4     1    35    1
     5     2     3    1
     6     2     4    1
     7     3    36    1
     8     3    37    1
     9     3    38    1
    10     4     5    1
    11     4    39    1
    12     4    40    1
    13     5     6    1
    14     5    41    1
    15     5    42    1
    16     6     7    1
    17     7     8   ar
    18     7    19   ar
    19     8     9   ar
    20     9    10    1
    21     9    17   ar
    22    10    11   ar
    23    10    15   ar
    24    11    12   ar
    25    11    43    1
    26    12    13   ar
    27    12    44    1
    28    13    14   ar
    29    13    45    1
    30    14    15   ar
    31    14    46    1
    32    15    16    1
    33    17    18   ar
    34    17    32    1
    35    18    19   ar
    36    18    20    1
    37    20    21    1
    38    20    29   am
    39    21    22   ar
    40    21    27   ar
    41    22    23    1
    42    22    24   ar
    43    24    25   ar
    44    24    47    1
    45    25    26   ar
    46    25    48    1
    47    26    27   ar
    48    26    49    1
    49    27    28    1
    50    29    30    2
    51    29    31   am
    52    31    32    1
    53    31    50    1
    54    32    51    1
    55    32    52    1
@<TRIPOS>MOLECULE
AD3CC00079027-I00-C00
 65 69 0 0 0
SMALL
GASTEIGER

@<TRIPOS>ATOM
      1 C           0.3860    1.9690   -4.8100 C.3     1  UNL1       -0.0130
      2 N          -0.7500    1.0430   -4.8650 N.3     1  UNL1       -0.3071
      3 C          -0.5970    0.1450   -6.0110 C.3     1  UNL1       -0.0130
      4 C          -0.8470    0.2980   -3.5900 C.3     1  UNL1        0.0111
      5 C          -2.1680   -0.5040   -3.4370 C.3     1  UNL1        0.0118
      6 N          -2.4060   -1.1950   -2.1560 N.3     1  UNL1       -0.2981
      7 C          -1.3990   -2.2400   -1.8660 C.3     1  UNL1        0.0148
      8 C          -1.6940   -2.9840   -0.5380 C.3     1  UNL1        0.0277
      9 N          -1.8100   -2.0300    0.5800 N.pl3   1  UNL1       -0.2971
     10 C          -0.5880   -1.5410    1.0450 C.ar    1  UNL1        0.2201
     11 N           0.5040   -2.3040    0.9210 N.ar    1  UNL1       -0.2139
     12 C           1.6840   -1.8220    1.3580 C.ar    1  UNL1        0.0839
     13 C           2.8180   -2.7230    1.1250 C.ar    1  UNL1        0.0192
     14 C           3.0400   -3.7910    2.0150 C.ar    1  UNL1       -0.0512
     15 C           4.1110   -4.6690    1.8340 C.ar    1  UNL1       -0.0611
     16 C           4.9750   -4.5010    0.7550 C.ar    1  UNL1       -0.0603
     17 C           4.7650   -3.4580   -0.1470 C.ar    1  UNL1       -0.0427
     18 C           3.6920   -2.5780    0.0330 C.ar    1  UNL1        0.0501
     19 CL          3.4890   -1.3150   -1.1340 Cl      1  UNL1       -0.0829
     20 C           1.8050   -0.5900    1.9670 C.ar    1  UNL1        0.0364
     21 C           0.6430    0.1390    2.0560 C.ar    1  UNL1        0.1436
     22 N          -0.5400   -0.3270    1.6030 N.ar    1  UNL1       -0.1982
     23 N           0.7020    1.4280    2.6440 N.am    1  UNL1       -0.2050
     24 C          -0.4930    2.1970    2.6180 C.ar    1  UNL1        0.0807
     25 C          -1.3010    2.3150    3.7620 C.ar    1  UNL1        0.0642
     26 CL         -0.9320    1.4880    5.2380 Cl      1  UNL1       -0.0816
     27 C          -2.4750    3.0760    3.7250 C.ar    1  UNL1       -0.0415
     28 C          -2.8530    3.7280    2.5520 C.ar    1  UNL1       -0.0589
     29 C          -2.0580    3.6240    1.4120 C.ar    1  UNL1       -0.0415
     30 C          -0.8820    2.8660    1.4430 C.ar    1  UNL1        0.0642
     31 CL          0.0810    2.8280    0.0030 Cl      1  UNL1       -0.0816
     32 C           1.8130    1.9010    3.3130 C.2     1  UNL1        0.3124
     33 O           1.8920    2.9970    3.8660 O.2     1  UNL1       -0.2519
     34 N           2.8940    1.0660    3.3600 N.am    1  UNL1       -0.2944
     35 C           3.0890    0.0020    2.4150 C.3     1  UNL1        0.0436
     36 C          -2.8310   -0.9990    0.3180 C.3     1  UNL1        0.0277
     37 C          -2.5450   -0.2630   -1.0150 C.3     1  UNL1        0.0148
     38 H           0.4500    2.5560   -5.7330 H       1  UNL1        0.0391
     39 H           1.3390    1.4460   -4.6660 H       1  UNL1        0.0391
     40 H           0.2600    2.6880   -3.9930 H       1  UNL1        0.0391
     41 H           0.2770   -0.5090   -5.9120 H       1  UNL1        0.0391
     42 H          -0.4890    0.7210   -6.9380 H       1  UNL1        0.0391
     43 H          -1.4850   -0.4790   -6.1480 H       1  UNL1        0.0391
     44 H           0.0180   -0.3660   -3.4770 H       1  UNL1        0.0439
     45 H          -0.8020    1.0270   -2.7730 H       1  UNL1        0.0439
     46 H          -2.2280   -1.2610   -4.2270 H       1  UNL1        0.0439
     47 H          -3.0130    0.1730   -3.6210 H       1  UNL1        0.0439
     48 H          -1.3980   -2.9780   -2.6770 H       1  UNL1        0.0442
     49 H          -0.3940   -1.8060   -1.8150 H       1  UNL1        0.0442
     50 H          -2.6500   -3.5160   -0.6350 H       1  UNL1        0.0477
     51 H          -0.9440   -3.7620   -0.3540 H       1  UNL1        0.0477
     52 H           2.3640   -3.9460    2.8550 H       1  UNL1        0.0625
     53 H           4.2640   -5.4890    2.5320 H       1  UNL1        0.0618
     54 H           5.8060   -5.1870    0.6100 H       1  UNL1        0.0618
     55 H           5.4380   -3.3400   -0.9930 H       1  UNL1        0.0632
     56 H          -3.1010    3.1580    4.6100 H       1  UNL1        0.0633
     57 H          -3.7650    4.3200    2.5290 H       1  UNL1        0.0618
     58 H          -2.3520    4.1440    0.5040 H       1  UNL1        0.0633
     59 H           3.7030    1.4960    3.7900 H       1  UNL1        0.1506
     60 H           3.7250   -0.7380    2.9110 H       1  UNL1        0.0514
     61 H           3.6300    0.4210    1.5600 H       1  UNL1        0.0514
     62 H          -3.8070   -1.4960    0.2450 H       1  UNL1        0.0477
     63 H          -2.9280   -0.2850    1.1450 H       1  UNL1        0.0477
     64 H          -3.3730    0.4290   -1.2080 H       1  UNL1        0.0442
     65 H          -1.6370    0.3380   -0.8960 H       1  UNL1        0.0442
@<TRIPOS>BOND
     1     1     2    1
     2     1    38    1
     3     1    39    1
     4     1    40    1
     5     2     3    1
     6     2     4    1
     7     3    41    1
     8     3    42    1
     9     3    43    1
    10     4     5    1
    11     4    44    1
    12     4    45    1
    13     5     6    1
    14     5    46    1
    15     5    47    1
    16     6     7    1
    17     6    37    1
    18     7     8    1
    19     7    48    1
    20     7    49    1
    21     8     9    1
    22     8    50    1
    23     8    51    1
    24     9    10    1
    25     9    36    1
    26    10    11   ar
    27    10    22   ar
    28    11    12   ar
    29    12    13    1
    30    12    20   ar
    31    13    14   ar
    32    13    18   ar
    33    14    15   ar
    34    14    52    1
    35    15    16   ar
    36    15    53    1
    37    16    17   ar
    38    16    54    1
    39    17    18   ar
    40    17    55    1
    41    18    19    1
    42    20    21   ar
    43    20    35    1
    44    21    22   ar
    45    21    23    1
    46    23    24    1
    47    23    32   am
    48    24    25   ar
    49    24    30   ar
    50    25    26    1
    51    25    27   ar
    52    27    28   ar
    53    27    56    1
    54    28    29   ar
    55    28    57    1
    56    29    30   ar
    57    29    58    1
    58    30    31    1
    59    32    33    2
    60    32    34   am
    61    34    35    1
    62    34    59    1
    63    35    60    1
    64    35    61    1
    65    36    37    1
    66    36    62    1
    67    36    63    1
    68    37    64    1
    69    37    65    1
@<TRIPOS>MOLECULE
AD3CC00079034-I00-C00
 61 66 0 0 0
SMALL
GASTEIGER

@<TRIPOS>ATOM
      1 C           6.2430   -0.6510   -1.0780 C.3     1  UNL1       -0.0122
      2 N           4.7960   -0.5430   -1.2490 N.3     1  UNL1       -0.2993
      3 C           4.1970   -1.7610   -1.8240 C.3     1  UNL1        0.0121
      4 C           4.0870   -2.7300   -0.6410 C.3     1  UNL1       -0.0359
      5 C           4.0100   -1.8260    0.5930 C.3     1  UNL1       -0.0359
      6 C           4.0790   -0.4020    0.0310 C.3     1  UNL1        0.0121
      7 C           2.6830    0.1520   -0.3120 C.3     1  UNL1       -0.0188
      8 C           1.9040   -0.7790   -1.2620 C.3     1  UNL1        0.0262
      9 N           0.7800   -0.0840   -1.8870 N.pl3   1  UNL1       -0.3105
     10 C          -0.2920    0.2080   -1.0590 C.ar    1  UNL1        0.2177
     11 N          -0.9140    1.3620   -1.2940 N.ar    1  UNL1       -0.2140
     12 C          -1.9480    1.6910   -0.4920 C.ar    1  UNL1        0.0839
     13 C          -2.5530    2.9920   -0.8030 C.ar    1  UNL1        0.0192
     14 C          -3.4040    3.1000   -1.9200 C.ar    1  UNL1       -0.0512
     15 C          -4.0060    4.3150   -2.2550 C.ar    1  UNL1       -0.0611
     16 C          -3.7640    5.4480   -1.4830 C.ar    1  UNL1       -0.0603
     17 C          -2.9140    5.3670   -0.3800 C.ar    1  UNL1       -0.0427
     18 C          -2.3090    4.1510   -0.0440 C.ar    1  UNL1        0.0501
     19 CL         -1.2550    4.1370    1.3290 Cl      1  UNL1       -0.0829
     20 C          -2.4030    0.8590    0.5150 C.ar    1  UNL1        0.0364
     21 C          -1.7010   -0.3140    0.6810 C.ar    1  UNL1        0.1436
     22 N          -0.6470   -0.6390   -0.0940 N.ar    1  UNL1       -0.1984
     23 N          -2.1140   -1.2100    1.7000 N.am    1  UNL1       -0.2050
     24 C          -1.3360   -2.3900    1.8630 C.ar    1  UNL1        0.0807
     25 C          -0.1070   -2.3460    2.5470 C.ar    1  UNL1        0.0642
     26 CL          0.5000   -0.8850    3.2530 Cl      1  UNL1       -0.0816
     27 C           0.6600   -3.5050    2.7110 C.ar    1  UNL1       -0.0415
     28 C           0.2110   -4.7210    2.1960 C.ar    1  UNL1       -0.0589
     29 C          -1.0050   -4.7790    1.5160 C.ar    1  UNL1       -0.0415
     30 C          -1.7770   -3.6240    1.3500 C.ar    1  UNL1        0.0642
     31 CL         -3.2410   -3.7710    0.4350 Cl      1  UNL1       -0.0816
     32 C          -3.2990   -1.0650    2.3940 C.2     1  UNL1        0.3124
     33 O          -3.7170   -1.8420    3.2510 O.2     1  UNL1       -0.2519
     34 N          -4.0560    0.0280    2.0800 N.am    1  UNL1       -0.2944
     35 C          -3.5090    1.1950    1.4450 C.3     1  UNL1        0.0436
     36 C           2.8160   -1.3480   -2.3660 C.3     1  UNL1       -0.0188
     37 H           6.5540   -1.4870   -0.4440 H       1  UNL1        0.0391
     38 H           6.7280   -0.7670   -2.0530 H       1  UNL1        0.0391
     39 H           6.6380    0.2720   -0.6390 H       1  UNL1        0.0391
     40 H           4.7900   -2.1800   -2.6450 H       1  UNL1        0.0463
     41 H           3.2200   -3.3940   -0.7150 H       1  UNL1        0.0281
     42 H           4.9800   -3.3620   -0.5730 H       1  UNL1        0.0281
     43 H           4.8660   -2.0260    1.2470 H       1  UNL1        0.0281
     44 H           3.1020   -2.0070    1.1750 H       1  UNL1        0.0281
     45 H           4.5760    0.2890    0.7220 H       1  UNL1        0.0463
     46 H           2.1120    0.3010    0.6120 H       1  UNL1        0.0298
     47 H           2.7940    1.1460   -0.7680 H       1  UNL1        0.0298
     48 H           1.5310   -1.6400   -0.6910 H       1  UNL1        0.0499
     49 H           1.0220    0.7780   -2.3650 H       1  UNL1        0.1492
     50 H          -3.5920    2.2270   -2.5440 H       1  UNL1        0.0625
     51 H          -4.6570    4.3760   -3.1250 H       1  UNL1        0.0618
     52 H          -4.2270    6.3960   -1.7460 H       1  UNL1        0.0618
     53 H          -2.7200    6.2590    0.2110 H       1  UNL1        0.0632
     54 H           1.6050   -3.4670    3.2470 H       1  UNL1        0.0633
     55 H           0.8070   -5.6210    2.3250 H       1  UNL1        0.0618
     56 H          -1.3470   -5.7280    1.1110 H       1  UNL1        0.0633
     57 H          -4.8690    0.1280    2.6750 H       1  UNL1        0.1506
     58 H          -3.1470    1.8560    2.2400 H       1  UNL1        0.0514
     59 H          -4.3410    1.6830    0.9280 H       1  UNL1        0.0514
     60 H           2.3260   -2.2140   -2.8310 H       1  UNL1        0.0298
     61 H           2.9490   -0.6070   -3.1670 H       1  UNL1        0.0298
@<TRIPOS>BOND
     1     1     2    1
     2     1    37    1
     3     1    38    1
     4     1    39    1
     5     2     3    1
     6     2     6    1
     7     3     4    1
     8     3    36    1
     9     3    40    1
    10     4     5    1
    11     4    41    1
    12     4    42    1
    13     5     6    1
    14     5    43    1
    15     5    44    1
    16     6     7    1
    17     6    45    1
    18     7     8    1
    19     7    46    1
    20     7    47    1
    21     8     9    1
    22     8    36    1
    23     8    48    1
    24     9    10    1
    25     9    49    1
    26    10    11   ar
    27    10    22   ar
    28    11    12   ar
    29    12    13    1
    30    12    20   ar
    31    13    14   ar
    32    13    18   ar
    33    14    15   ar
    34    14    50    1
    35    15    16   ar
    36    15    51    1
    37    16    17   ar
    38    16    52    1
    39    17    18   ar
    40    17    53    1
    41    18    19    1
    42    20    21   ar
    43    20    35    1
    44    21    22   ar
    45    21    23    1
    46    23    24    1
    47    23    32   am
    48    24    25   ar
    49    24    30   ar
    50    25    26    1
    51    25    27   ar
    52    27    28   ar
    53    27    54    1
    54    28    29   ar
    55    28    55    1
    56    29    30   ar
    57    29    56    1
    58    30    31    1
    59    32    33    2
    60    32    34   am
    61    34    35    1
    62    34    57    1
    63    35    58    1
    64    35    59    1
    65    36    60    1
    66    36    61    1
@<TRIPOS>MOLECULE
AD3CC00079035-I00-C01
 66 70 0 0 0
SMALL
GASTEIGER

@<TRIPOS>ATOM
      1 C          -2.7050   -1.1420   -1.2840 C.3     1  UNL1       -0.0470
      2 C          -2.9830   -1.3600    0.2140 C.3     1  UNL1        0.0157
      3 C          -4.4140   -0.8500    0.4880 C.3     1  UNL1       -0.0470
      4 C          -2.0080   -0.5470    1.0860 C.3     1  UNL1       -0.0166
      5 C          -0.6190   -1.1880    1.1560 C.3     1  UNL1        0.0266
      6 N           0.2570   -0.4490    2.0600 N.pl3   1  UNL1       -0.3104
      7 C           0.7350    0.7740    1.6290 C.ar    1  UNL1        0.2177
      8 N           1.0010    1.6650    2.5830 N.ar    1  UNL1       -0.2140
      9 C           1.4940    2.8620    2.2040 C.ar    1  UNL1        0.0839
     10 C           1.7890    3.7680    3.3210 C.ar    1  UNL1        0.0192
     11 C           0.7230    4.4220    3.9690 C.ar    1  UNL1       -0.0512
     12 C           0.9510    5.2980    5.0330 C.ar    1  UNL1       -0.0611
     13 C           2.2500    5.5330    5.4740 C.ar    1  UNL1       -0.0603
     14 C           3.3200    4.8870    4.8560 C.ar    1  UNL1       -0.0427
     15 C           3.0930    4.0080    3.7900 C.ar    1  UNL1        0.0501
     16 CL          4.4740    3.2400    3.0840 Cl      1  UNL1       -0.0829
     17 C           1.6680    3.2080    0.8760 C.ar    1  UNL1        0.0364
     18 C           1.3490    2.2310   -0.0410 C.ar    1  UNL1        0.1436
     19 N           0.8910    1.0180    0.3280 N.ar    1  UNL1       -0.1984
     20 N           1.4900    2.5290   -1.4200 N.am    1  UNL1       -0.2050
     21 C           1.1990    1.4770   -2.3320 C.ar    1  UNL1        0.0807
     22 C           2.1440    0.4630   -2.5740 C.ar    1  UNL1        0.0642
     23 CL          3.7040    0.4650   -1.8220 Cl      1  UNL1       -0.0816
     24 C           1.8620   -0.5710   -3.4730 C.ar    1  UNL1       -0.0415
     25 C           0.6410   -0.6050   -4.1440 C.ar    1  UNL1       -0.0589
     26 C          -0.3030    0.3960   -3.9160 C.ar    1  UNL1       -0.0415
     27 C          -0.0300    1.4300   -3.0140 C.ar    1  UNL1        0.0642
     28 CL         -1.2860    2.5880   -2.7280 Cl      1  UNL1       -0.0816
     29 C           1.7310    3.8030   -1.8940 C.2     1  UNL1        0.3124
     30 O           1.8080    4.1140   -3.0810 O.2     1  UNL1       -0.2519
     31 N           1.8800    4.7820   -0.9510 N.am    1  UNL1       -0.2944
     32 C           2.2420    4.4940    0.4090 C.3     1  UNL1        0.0436
     33 C          -0.7690   -2.6150    1.6900 C.3     1  UNL1       -0.0166
     34 C          -1.7200   -3.4670    0.8290 C.3     1  UNL1        0.0157
     35 C          -1.0370   -3.9280   -0.4720 C.3     1  UNL1       -0.0470
     36 C          -2.0830   -4.7380    1.6250 C.3     1  UNL1       -0.0470
     37 N          -2.9930   -2.7830    0.5700 N.3     1  UNL1       -0.3060
     38 H          -2.9020   -0.1010   -1.5670 H       1  UNL1        0.0247
     39 H          -1.6700   -1.3500   -1.5600 H       1  UNL1        0.0247
     40 H          -3.3510   -1.7730   -1.9060 H       1  UNL1        0.0247
     41 H          -4.4990    0.2220    0.2730 H       1  UNL1        0.0247
     42 H          -5.1530   -1.3720   -0.1320 H       1  UNL1        0.0247
     43 H          -4.6990   -0.9970    1.5370 H       1  UNL1        0.0247
     44 H          -1.9360    0.4800    0.7030 H       1  UNL1        0.0301
     45 H          -2.4070   -0.4560    2.1070 H       1  UNL1        0.0301
     46 H          -0.1630   -1.2370    0.1610 H       1  UNL1        0.0499
     47 H          -0.0680   -0.3340    3.0130 H       1  UNL1        0.1492
     48 H          -0.3010    4.2390    3.6460 H       1  UNL1        0.0625
     49 H           0.1130    5.7900    5.5210 H       1  UNL1        0.0618
     50 H           2.4300    6.2100    6.3050 H       1  UNL1        0.0618
     51 H           4.3310    5.0660    5.2140 H       1  UNL1        0.0632
     52 H           2.5980   -1.3500   -3.6600 H       1  UNL1        0.0633
     53 H           0.4260   -1.4070   -4.8450 H       1  UNL1        0.0618
     54 H          -1.2570    0.3610   -4.4370 H       1  UNL1        0.0633
     55 H           2.1440    5.6740   -1.3510 H       1  UNL1        0.1506
     56 H           1.8870    5.3390    1.0070 H       1  UNL1        0.0514
     57 H           3.3350    4.4600    0.4550 H       1  UNL1        0.0514
     58 H           0.2180   -3.0940    1.7500 H       1  UNL1        0.0301
     59 H          -1.1420   -2.5710    2.7240 H       1  UNL1        0.0301
     60 H          -0.1960   -4.5970   -0.2520 H       1  UNL1        0.0247
     61 H          -0.6310   -3.1020   -1.0590 H       1  UNL1        0.0247
     62 H          -1.7330   -4.4830   -1.1120 H       1  UNL1        0.0247
     63 H          -2.6030   -4.4930    2.5590 H       1  UNL1        0.0247
     64 H          -2.7370   -5.4030    1.0470 H       1  UNL1        0.0247
     65 H          -1.1840   -5.3080    1.8900 H       1  UNL1        0.0247
     66 H          -3.5650   -3.3170   -0.0840 H       1  UNL1        0.1229
@<TRIPOS>BOND
     1     2     1    1
     2     1    38    1
     3     1    39    1
     4     1    40    1
     5     2     3    1
     6     2     4    1
     7     2    37    1
     8     3    41    1
     9     3    42    1
    10     3    43    1
    11     4     5    1
    12     4    44    1
    13     4    45    1
    14     5     6    1
    15     5    33    1
    16     5    46    1
    17     6     7    1
    18     6    47    1
    19     7     8   ar
    20     7    19   ar
    21     8     9   ar
    22     9    10    1
    23     9    17   ar
    24    10    11   ar
    25    10    15   ar
    26    11    12   ar
    27    11    48    1
    28    12    13   ar
    29    12    49    1
    30    13    14   ar
    31    13    50    1
    32    14    15   ar
    33    14    51    1
    34    15    16    1
    35    17    18   ar
    36    17    32    1
    37    18    19   ar
    38    18    20    1
    39    20    21    1
    40    20    29   am
    41    21    22   ar
    42    21    27   ar
    43    22    23    1
    44    22    24   ar
    45    24    25   ar
    46    24    52    1
    47    25    26   ar
    48    25    53    1
    49    26    27   ar
    50    26    54    1
    51    27    28    1
    52    29    30    2
    53    29    31   am
    54    31    32    1
    55    31    55    1
    56    32    56    1
    57    32    57    1
    58    33    34    1
    59    33    58    1
    60    33    59    1
    61    34    35    1
    62    34    36    1
    63    34    37    1
    64    35    60    1
    65    35    61    1
    66    35    62    1
    67    36    63    1
    68    36    64    1
    69    36    65    1
    70    37    66    1
@<TRIPOS>MOLECULE
AD3CC00080130-I00-C00
 39 41 0 0 0
SMALL
GASTEIGER

@<TRIPOS>ATOM
      1 C          -1.1650   -1.0330   -2.8300 C.3     1  UNL1       -0.0389
      2 C          -2.0740   -1.2820   -1.6570 C.ar    1  UNL1       -0.0369
      3 C          -2.8410   -2.4590   -1.6280 C.ar    1  UNL1       -0.0581
      4 C          -3.6950   -2.7300   -0.5590 C.ar    1  UNL1       -0.0615
      5 C          -3.7940   -1.8300    0.4960 C.ar    1  UNL1       -0.0610
      6 C          -3.0320   -0.6610    0.4860 C.ar    1  UNL1       -0.0479
      7 C          -2.1600   -0.3700   -0.5800 C.ar    1  UNL1        0.0523
      8 C          -1.3410    0.8540   -0.5220 C.ar    1  UNL1        0.2479
      9 C          -0.0150    0.8580   -0.0070 C.ar    1  UNL1        0.1098
     10 N           0.6230   -0.3590    0.3450 N.pl3   1  UNL1       -0.3523
     11 C           0.7290    2.0540   -0.0660 C.ar    1  UNL1        0.0551
     12 C           2.1360    2.0740    0.4040 C.2     1  UNL1        0.1981
     13 O           2.4010    1.5520    1.4860 O.2     1  UNL1       -0.2865
     14 C           3.2200    2.7130   -0.3790 C.ar    1  UNL1        0.0576
     15 C           4.3400    3.2050    0.3100 C.ar    1  UNL1       -0.0454
     16 C           5.3880    3.8000   -0.3940 C.ar    1  UNL1       -0.0256
     17 C           5.3200    3.8920   -1.7810 C.ar    1  UNL1        0.1262
     18 F           6.3270    4.4630   -2.4530 F       1  UNL1       -0.2054
     19 C           4.2280    3.3950   -2.4790 C.ar    1  UNL1        0.0095
     20 C           3.1840    2.8020   -1.7740 C.ar    1  UNL1        0.1369
     21 F           2.1540    2.3070   -2.4730 F       1  UNL1       -0.2047
     22 C           0.1420    3.2420   -0.4980 C.ar    1  UNL1        0.0160
     23 C          -1.1750    3.2190   -0.9400 C.ar    1  UNL1        0.1842
     24 N          -1.9260    2.0500   -0.9710 N.ar    1  UNL1       -0.1688
     25 O          -3.1220    2.1200   -1.4050 O.co2   1  UNL1       -0.6193
     26 H          -1.3510   -1.7480   -3.6390 H       1  UNL1        0.0278
     27 H          -1.3320   -0.0330   -3.2430 H       1  UNL1        0.0278
     28 H          -0.1180   -1.1340   -2.5280 H       1  UNL1        0.0278
     29 H          -2.7820   -3.1720   -2.4470 H       1  UNL1        0.0620
     30 H          -4.2890   -3.6400   -0.5560 H       1  UNL1        0.0618
     31 H          -4.4690   -2.0320    1.3230 H       1  UNL1        0.0618
     32 H          -3.1300    0.0350    1.3170 H       1  UNL1        0.0626
     33 H           1.3790   -0.2150    1.0230 H       1  UNL1        0.1425
     34 H          -0.0170   -1.0900    0.6490 H       1  UNL1        0.1425
     35 H           4.3980    3.1230    1.3940 H       1  UNL1        0.0626
     36 H           6.2590    4.1870    0.1290 H       1  UNL1        0.0646
     37 H           4.1930    3.4600   -3.5610 H       1  UNL1        0.0675
     38 H           0.6860    4.1820   -0.4970 H       1  UNL1        0.0685
     39 H          -1.7190    4.0800   -1.3000 H       1  UNL1        0.1390
@<TRIPOS>UNITY_ATOM_ATTR
24 1
charge 1
25 1
charge -1
@<TRIPOS>BOND
     1     1     2    1
     2     1    26    1
     3     1    27    1
     4     1    28    1
     5     2     3   ar
     6     2     7   ar
     7     3     4   ar
     8     3    29    1
     9     4     5   ar
    10     4    30    1
    11     5     6   ar
    12     5    31    1
    13     6     7   ar
    14     6    32    1
    15     7     8    1
    16     8     9   ar
    17     8    24   ar
    18     9    10    1
    19     9    11   ar
    20    10    33    1
    21    10    34    1
    22    11    12    1
    23    11    22   ar
    24    12    13    2
    25    12    14    1
    26    14    15   ar
    27    14    20   ar
    28    15    16   ar
    29    15    35    1
    30    16    17   ar
    31    16    36    1
    32    17    18    1
    33    17    19   ar
    34    19    20   ar
    35    19    37    1
    36    20    21    1
    37    22    23   ar
    38    22    38    1
    39    23    24   ar
    40    23    39    1
    41    24    25    1
@<TRIPOS>MOLECULE
AD3CC00080139-I00-C00
 50 52 0 0 0
SMALL
GASTEIGER

@<TRIPOS>ATOM
      1 C           2.6960    4.2190    7.0970 C.3     1  UNL1        0.0366
      2 O           2.7650    2.8110    6.9130 O.3     1  UNL1       -0.3796
      3 C           3.2760    2.4780    5.6210 C.3     1  UNL1        0.0813
      4 C           3.3420    0.9580    5.4830 C.3     1  UNL1        0.1128
      5 O           3.8610    0.5670    4.2120 O.3     1  UNL1       -0.4897
      6 C           3.0120    0.5250    3.1430 C.ar    1  UNL1        0.1209
      7 C           1.6390    0.7500    3.1660 C.ar    1  UNL1       -0.0192
      8 C           0.8970    0.6770    1.9820 C.ar    1  UNL1       -0.0445
      9 C           1.5080    0.3810    0.7500 C.ar    1  UNL1        0.0525
     10 C           0.6750    0.2910   -0.4610 C.ar    1  UNL1        0.2479
     11 C           0.0100   -0.9090   -0.8380 C.ar    1  UNL1        0.1098
     12 N           0.0150   -2.0340    0.0260 N.pl3   1  UNL1       -0.3523
     13 C          -0.8340   -0.8880   -1.9680 C.ar    1  UNL1        0.0551
     14 C          -1.5840   -2.1100   -2.3540 C.2     1  UNL1        0.1981
     15 O          -0.9850   -3.1840   -2.3720 O.2     1  UNL1       -0.2865
     16 C          -3.0170   -2.0710   -2.7320 C.ar    1  UNL1        0.0576
     17 C          -3.5020   -3.0570   -3.6040 C.ar    1  UNL1       -0.0454
     18 C          -4.8500   -3.0630   -3.9720 C.ar    1  UNL1       -0.0256
     19 C          -5.7060   -2.0940   -3.4590 C.ar    1  UNL1        0.1262
     20 F          -6.9970   -2.1030   -3.8130 F       1  UNL1       -0.2054
     21 C          -5.2450   -1.1220   -2.5820 C.ar    1  UNL1        0.0095
     22 C          -3.9020   -1.1190   -2.2180 C.ar    1  UNL1        0.1369
     23 F          -3.4870   -0.1860   -1.3490 F       1  UNL1       -0.2047
     24 C          -0.9220    0.2460   -2.7740 C.ar    1  UNL1        0.0160
     25 C          -0.2220    1.3880   -2.4070 C.ar    1  UNL1        0.1842
     26 N           0.5640    1.4390   -1.2630 N.ar    1  UNL1       -0.1688
     27 O           1.1570    2.5350   -0.9910 O.co2   1  UNL1       -0.6193
     28 C           2.8990    0.1480    0.7270 C.ar    1  UNL1       -0.0335
     29 C           3.6270   -0.1620   -0.5540 C.3     1  UNL1       -0.0388
     30 C           3.6300    0.2240    1.9260 C.ar    1  UNL1       -0.0163
     31 H           3.6930    4.6650    7.0200 H       1  UNL1        0.0524
     32 H           2.0240    4.6690    6.3600 H       1  UNL1        0.0524
     33 H           2.3020    4.4170    8.0970 H       1  UNL1        0.0524
     34 H           4.2790    2.9030    5.4930 H       1  UNL1        0.0593
     35 H           2.6320    2.9110    4.8480 H       1  UNL1        0.0593
     36 H           2.3890    0.4710    5.7190 H       1  UNL1        0.0720
     37 H           4.0390    0.5750    6.2390 H       1  UNL1        0.0720
     38 H           1.1070    0.9870    4.0800 H       1  UNL1        0.0654
     39 H          -0.1760    0.8580    2.0260 H       1  UNL1        0.0627
     40 H           0.8430   -2.1040    0.6140 H       1  UNL1        0.1425
     41 H          -0.1580   -2.9090   -0.4810 H       1  UNL1        0.1425
     42 H          -2.8340   -3.8220   -3.9960 H       1  UNL1        0.0626
     43 H          -5.2370   -3.8200   -4.6480 H       1  UNL1        0.0646
     44 H          -5.9260   -0.3800   -2.1790 H       1  UNL1        0.0675
     45 H          -1.5240    0.2590   -3.6770 H       1  UNL1        0.0685
     46 H          -0.2310    2.3190   -2.9550 H       1  UNL1        0.1390
     47 H           3.5560    0.6820   -1.2460 H       1  UNL1        0.0278
     48 H           4.6900   -0.3540   -0.3750 H       1  UNL1        0.0278
     49 H           3.2100   -1.0580   -1.0240 H       1  UNL1        0.0278
     50 H           4.7060    0.0560    1.9170 H       1  UNL1        0.0657
@<TRIPOS>UNITY_ATOM_ATTR
26 1
charge 1
27 1
charge -1
@<TRIPOS>BOND
     1     1     2    1
     2     1    31    1
     3     1    32    1
     4     1    33    1
     5     2     3    1
     6     3     4    1
     7     3    34    1
     8     3    35    1
     9     4     5    1
    10     4    36    1
    11     4    37    1
    12     5     6    1
    13     6     7   ar
    14     6    30   ar
    15     7     8   ar
    16     7    38    1
    17     8     9   ar
    18     8    39    1
    19     9    10    1
    20     9    28   ar
    21    10    11   ar
    22    10    26   ar
    23    11    12    1
    24    11    13   ar
    25    12    40    1
    26    12    41    1
    27    13    14    1
    28    13    24   ar
    29    14    15    2
    30    14    16    1
    31    16    17   ar
    32    16    22   ar
    33    17    18   ar
    34    17    42    1
    35    18    19   ar
    36    18    43    1
    37    19    20    1
    38    19    21   ar
    39    21    22   ar
    40    21    44    1
    41    22    23    1
    42    24    25   ar
    43    24    45    1
    44    25    26   ar
    45    25    46    1
    46    26    27    1
    47    28    29    1
    48    28    30   ar
    49    29    47    1
    50    29    48    1
    51    29    49    1
    52    30    50    1
@<TRIPOS>MOLECULE
AD3CC00081506-I00-C00
 57 59 0 0 0
SMALL
GASTEIGER

@<TRIPOS>ATOM
      1 C           1.3810   -0.7360   -6.3170 C.3     1  UNL1       -0.0610
      2 C           0.0080   -0.6450   -5.6440 C.3     1  UNL1       -0.0285
      3 C          -0.2830   -1.9750   -4.9320 C.3     1  UNL1       -0.0610
      4 C          -0.0920    0.5480   -4.6520 C.3     1  UNL1        0.0214
      5 C           0.2710    1.8880   -5.3060 C.3     1  UNL1       -0.0464
      6 N          -1.4740    0.6140   -4.1580 N.pl3   1  UNL1       -0.3262
      7 C          -1.7160    1.2940   -2.9720 C.ar    1  UNL1        0.1195
      8 C          -1.0370    1.0140   -1.7940 C.ar    1  UNL1       -0.0127
      9 C          -1.3610    1.7120   -0.6280 C.ar    1  UNL1        0.0051
     10 C          -0.6640    1.4340    0.6240 C.ar    1  UNL1        0.0748
     11 N          -0.1090    2.4350    1.3940 N.ar    1  UNL1       -0.3324
     12 C           0.5420    1.8560    2.4380 C.ar    1  UNL1        0.1674
     13 S           1.3590    2.8270    3.5950 S.3     1  UNL1       -0.0852
     14 C           2.4570    1.6150    4.4120 C.3     1  UNL1        0.0293
     15 C           1.8140    0.5570    5.3250 C.3     1  UNL1        0.0876
     16 O           1.4380   -0.6200    4.5910 O.3     1  UNL1       -0.3887
     17 C           0.6050    1.0210    6.1410 C.3     1  UNL1        0.0709
     18 O           0.2200   -0.0210    7.0420 O.3     1  UNL1       -0.3924
     19 N           0.4330    0.5540    2.4260 N.ar    1  UNL1       -0.2214
     20 C          -0.3270    0.2690    1.3070 C.ar    1  UNL1        0.0976
     21 C          -0.6680   -1.1020    0.9560 C.ar    1  UNL1        0.0026
     22 C           0.2730   -2.1190    1.1850 C.ar    1  UNL1       -0.0498
     23 C          -0.0220   -3.4460    0.8630 C.ar    1  UNL1       -0.0258
     24 C          -1.2610   -3.7580    0.3180 C.ar    1  UNL1        0.1234
     25 F          -1.5450   -5.0290    0.0060 F       1  UNL1       -0.2055
     26 C          -2.2130   -2.7700    0.0970 C.ar    1  UNL1       -0.0258
     27 C          -1.9200   -1.4430    0.4220 C.ar    1  UNL1       -0.0498
     28 C          -2.3650    2.6750   -0.6850 C.ar    1  UNL1       -0.0343
     29 C          -2.9990    2.8830   -1.8960 C.ar    1  UNL1        0.0303
     30 N          -2.6950    2.2150   -3.0280 N.ar    1  UNL1       -0.2405
     31 H           1.5610    0.1200   -6.9750 H       1  UNL1        0.0233
     32 H           2.1850   -0.7760   -5.5750 H       1  UNL1        0.0233
     33 H           1.4520   -1.6360   -6.9390 H       1  UNL1        0.0233
     34 H          -0.7450   -0.5190   -6.4330 H       1  UNL1        0.0313
     35 H          -0.2050   -2.8150   -5.6310 H       1  UNL1        0.0233
     36 H           0.4260   -2.1480   -4.1140 H       1  UNL1        0.0233
     37 H          -1.2940   -1.9930   -4.5140 H       1  UNL1        0.0233
     38 H           0.6130    0.3640   -3.8330 H       1  UNL1        0.0498
     39 H           1.3250    1.9160   -5.5990 H       1  UNL1        0.0248
     40 H           0.1090    2.7230   -4.6160 H       1  UNL1        0.0248
     41 H          -0.3390    2.0720   -6.1970 H       1  UNL1        0.0248
     42 H          -2.1150    1.0210   -4.8380 H       1  UNL1        0.1477
     43 H          -0.2780    0.2390   -1.7780 H       1  UNL1        0.0658
     44 H          -0.1290    3.4250    1.1990 H       1  UNL1        0.1679
     45 H           3.1320    2.2210    5.0270 H       1  UNL1        0.0407
     46 H           3.0700    1.1310    3.6440 H       1  UNL1        0.0407
     47 H           2.5850    0.2030    6.0200 H       1  UNL1        0.0624
     48 H           0.9460   -0.3170    3.7940 H       1  UNL1        0.2099
     49 H          -0.2640    1.2190    5.5060 H       1  UNL1        0.0583
     50 H           0.8360    1.9130    6.7310 H       1  UNL1        0.0583
     51 H           0.2640   -0.8440    6.5140 H       1  UNL1        0.2095
     52 H           1.2430   -1.8820    1.6190 H       1  UNL1        0.0625
     53 H           0.7040   -4.2330    1.0380 H       1  UNL1        0.0646
     54 H          -3.1780   -3.0360   -0.3230 H       1  UNL1        0.0646
     55 H          -2.6840   -0.6860    0.2620 H       1  UNL1        0.0625
     56 H          -2.6760    3.2360    0.1890 H       1  UNL1        0.0639
     57 H          -3.7990    3.6120   -1.9920 H       1  UNL1        0.0830
@<TRIPOS>BOND
     1     1     2    1
     2     1    31    1
     3     1    32    1
     4     1    33    1
     5     2     3    1
     6     2     4    1
     7     2    34    1
     8     3    35    1
     9     3    36    1
    10     3    37    1
    11     4     5    1
    12     4     6    1
    13     4    38    1
    14     5    39    1
    15     5    40    1
    16     5    41    1
    17     6     7    1
    18     6    42    1
    19     7     8   ar
    20     7    30   ar
    21     8     9   ar
    22     8    43    1
    23     9    10    1
    24     9    28   ar
    25    10    11   ar
    26    10    20   ar
    27    11    12   ar
    28    11    44    1
    29    12    13    1
    30    12    19   ar
    31    13    14    1
    32    14    15    1
    33    14    45    1
    34    14    46    1
    35    15    16    1
    36    15    17    1
    37    15    47    1
    38    16    48    1
    39    17    18    1
    40    17    49    1
    41    17    50    1
    42    18    51    1
    43    19    20   ar
    44    20    21    1
    45    21    22   ar
    46    21    27   ar
    47    22    23   ar
    48    22    52    1
    49    23    24   ar
    50    23    53    1
    51    24    25    1
    52    24    26   ar
    53    26    27   ar
    54    26    54    1
    55    27    55    1
    56    28    29   ar
    57    28    56    1
    58    29    30   ar
    59    29    57    1
@<TRIPOS>MOLECULE
AD3CC00081736-I00-C00
 53 56 0 0 0
SMALL
GASTEIGER

@<TRIPOS>ATOM
      1 C           0.0030   -8.3600   -2.4170 C.3     1  UNL1       -0.0126
      2 N           0.2310   -6.9590   -2.0730 N.3     1  UNL1       -0.3024
      3 C          -0.8210   -6.4700   -1.1540 C.3     1  UNL1        0.0144
      4 C          -0.6490   -4.9740   -0.7970 C.3     1  UNL1        0.0250
      5 N          -0.6290   -4.1490   -2.0240 N.pl3   1  UNL1       -0.3275
      6 C          -0.6780   -2.7540   -1.8760 C.ar    1  UNL1        0.0299
      7 C          -0.4620   -2.0900   -0.6640 C.ar    1  UNL1       -0.0389
      8 C          -0.5310   -0.6890   -0.5650 C.ar    1  UNL1       -0.0387
      9 C          -0.8300    0.1050   -1.6710 C.ar    1  UNL1        0.0337
     10 N          -0.9140    1.4990   -1.6370 N.pl3   1  UNL1       -0.2836
     11 C          -0.7480    2.4560   -0.6410 C.ar    1  UNL1        0.2195
     12 N          -0.4340    2.1300    0.6200 N.ar    1  UNL1       -0.2208
     13 C          -0.2940    3.1350    1.5180 C.ar    1  UNL1        0.0539
     14 C          -0.4540    4.4660    1.2090 C.ar    1  UNL1        0.0704
     15 N          -0.3210    5.5540    2.0980 N.am    1  UNL1       -0.2790
     16 C           0.0010    5.4640    3.4370 C.2     1  UNL1        0.2511
     17 O           0.2250    4.4510    4.0840 O.2     1  UNL1       -0.2698
     18 C           0.0700    6.7600    4.1290 C.ar    1  UNL1        0.0735
     19 C          -1.0410    7.2370    4.8340 C.ar    1  UNL1        0.0545
     20 CL         -2.5440    6.3880    4.8710 Cl      1  UNL1       -0.0827
     21 C          -0.9640    8.4550    5.5150 C.ar    1  UNL1       -0.0426
     22 C           0.2190    9.1950    5.4970 C.ar    1  UNL1       -0.0590
     23 C           1.3270    8.7200    4.7940 C.ar    1  UNL1       -0.0426
     24 C           1.2560    7.5030    4.1100 C.ar    1  UNL1        0.0545
     25 CL          2.6570    6.9830    3.2440 Cl      1  UNL1       -0.0827
     26 C          -0.7740    4.6940   -0.1140 C.ar    1  UNL1        0.0539
     27 N          -0.9250    3.7260   -1.0440 N.ar    1  UNL1       -0.2208
     28 C          -1.0640   -0.5550   -2.8830 C.ar    1  UNL1       -0.0387
     29 C          -0.9920   -1.9510   -2.9810 C.ar    1  UNL1       -0.0389
     30 C           0.4070   -4.6080   -2.9820 C.3     1  UNL1        0.0250
     31 C           0.2330   -6.1160   -3.2890 C.3     1  UNL1        0.0144
     32 H           0.0290   -8.9840   -1.5180 H       1  UNL1        0.0391
     33 H           0.7970   -8.7260   -3.0780 H       1  UNL1        0.0391
     34 H          -0.9600   -8.5160   -2.9180 H       1  UNL1        0.0391
     35 H          -1.8140   -6.6160   -1.6000 H       1  UNL1        0.0442
     36 H          -0.7900   -7.0490   -0.2230 H       1  UNL1        0.0442
     37 H          -1.4880   -4.6810   -0.1560 H       1  UNL1        0.0476
     38 H           0.2840   -4.8460   -0.2330 H       1  UNL1        0.0476
     39 H          -0.2150   -2.6370    0.2400 H       1  UNL1        0.0637
     40 H          -0.3420   -0.2440    0.4070 H       1  UNL1        0.0637
     41 H          -1.1430    1.9640   -2.5020 H       1  UNL1        0.1550
     42 H          -0.0410    2.7910    2.5160 H       1  UNL1        0.0850
     43 H          -0.4720    6.4770    1.7100 H       1  UNL1        0.1552
     44 H          -1.8230    8.8330    6.0660 H       1  UNL1        0.0632
     45 H           0.2780   10.1400    6.0330 H       1  UNL1        0.0618
     46 H           2.2460    9.3030    4.7870 H       1  UNL1        0.0632
     47 H          -0.9290    5.6990   -0.4950 H       1  UNL1        0.0850
     48 H          -1.3160    0.0120   -3.7760 H       1  UNL1        0.0637
     49 H          -1.2150   -2.4140   -3.9390 H       1  UNL1        0.0637
     50 H           1.4050   -4.4300   -2.5600 H       1  UNL1        0.0476
     51 H           0.3480   -4.0680   -3.9330 H       1  UNL1        0.0476
     52 H           1.0550   -6.4270   -3.9450 H       1  UNL1        0.0442
     53 H          -0.7030   -6.2540   -3.8470 H       1  UNL1        0.0442
@<TRIPOS>BOND
     1     1     2    1
     2     1    32    1
     3     1    33    1
     4     1    34    1
     5     2     3    1
     6     2    31    1
     7     3     4    1
     8     3    35    1
     9     3    36    1
    10     4     5    1
    11     4    37    1
    12     4    38    1
    13     5     6    1
    14     5    30    1
    15     6     7   ar
    16     6    29   ar
    17     7     8   ar
    18     7    39    1
    19     8     9   ar
    20     8    40    1
    21     9    10    1
    22     9    28   ar
    23    10    11    1
    24    10    41    1
    25    11    12   ar
    26    11    27   ar
    27    12    13   ar
    28    13    14   ar
    29    13    42    1
    30    14    15    1
    31    14    26   ar
    32    15    16   am
    33    15    43    1
    34    16    17    2
    35    16    18    1
    36    18    19   ar
    37    18    24   ar
    38    19    20    1
    39    19    21   ar
    40    21    22   ar
    41    21    44    1
    42    22    23   ar
    43    22    45    1
    44    23    24   ar
    45    23    46    1
    46    24    25    1
    47    26    27   ar
    48    26    47    1
    49    28    29   ar
    50    28    48    1
    51    29    49    1
    52    30    31    1
    53    30    50    1
    54    30    51    1
    55    31    52    1
    56    31    53    1
@<TRIPOS>MOLECULE
AD3CC00081738-I00-C00
 70 75 0 0 0
SMALL
GASTEIGER

@<TRIPOS>ATOM
      1 C           5.8050    8.6250    1.0860 C.3     1  UNL1       -0.0126
      2 N           4.6110    9.1030    0.3930 N.3     1  UNL1       -0.3024
      3 C           4.3790    8.3270   -0.8480 C.3     1  UNL1        0.0144
      4 C           3.0760    8.7390   -1.5770 C.3     1  UNL1        0.0250
      5 N           1.9000    8.6630   -0.6840 N.pl3   1  UNL1       -0.3275
      6 C           1.1710    7.4790   -0.5600 C.ar    1  UNL1        0.0299
      7 C           1.5730    6.2550   -1.1060 C.ar    1  UNL1       -0.0389
      8 C           0.8070    5.0840   -0.9620 C.ar    1  UNL1       -0.0387
      9 C          -0.4060    5.0870   -0.2780 C.ar    1  UNL1        0.0337
     10 N          -1.2110    3.9610   -0.0980 N.pl3   1  UNL1       -0.2836
     11 C          -1.0940    2.6180   -0.4390 C.ar    1  UNL1        0.2195
     12 N          -0.0630    2.1470   -1.1550 N.ar    1  UNL1       -0.2208
     13 C          -0.0490    0.8230   -1.4210 C.ar    1  UNL1        0.0539
     14 C          -1.0120   -0.0700   -1.0010 C.ar    1  UNL1        0.0704
     15 N          -0.8870   -1.4390   -1.3190 N.am    1  UNL1       -0.2790
     16 C          -1.7620   -2.4450   -0.9660 C.2     1  UNL1        0.2498
     17 O          -2.7840   -2.2920   -0.3040 O.2     1  UNL1       -0.2698
     18 C          -1.3890   -3.8340   -1.3670 C.ar    1  UNL1        0.0570
     19 C          -1.7950   -4.8570   -0.4850 C.ar    1  UNL1       -0.0269
     20 C          -1.4970   -6.2020   -0.7350 C.ar    1  UNL1        0.0345
     21 N          -1.9350   -7.1460    0.2170 N.am    1  UNL1       -0.2815
     22 C          -1.8010   -8.5220    0.1530 C.2     1  UNL1        0.2484
     23 O          -1.3340   -9.1690   -0.7760 O.2     1  UNL1       -0.2699
     24 C          -2.3160   -9.2660    1.3380 C.ar    1  UNL1        0.0407
     25 C          -2.8840  -10.5440    1.1290 C.ar    1  UNL1       -0.0459
     26 C          -3.3740  -11.2950    2.2020 C.ar    1  UNL1       -0.0152
     27 C          -3.2710  -10.7490    3.4630 C.ar    1  UNL1        0.1727
     28 C          -2.7050   -9.5110    3.6720 C.ar    1  UNL1        0.1734
     29 C          -2.2130   -8.7440    2.6360 C.ar    1  UNL1       -0.0038
     30 O          -2.6880   -9.1640    4.9870 O.3     1  UNL1       -0.3954
     31 C          -3.3020  -10.3270    5.5630 C.3     1  UNL1        0.5891
     32 F          -4.4060   -9.9350    6.2470 F       1  UNL1       -0.1252
     33 F          -2.4380  -10.8740    6.4530 F       1  UNL1       -0.1252
     34 O          -3.6850  -11.3350    4.6170 O.3     1  UNL1       -0.3955
     35 C          -0.7850   -6.5250   -1.8870 C.ar    1  UNL1       -0.0391
     36 C          -0.3900   -5.5230   -2.7810 C.ar    1  UNL1       -0.0409
     37 C          -0.6910   -4.1810   -2.5300 C.ar    1  UNL1        0.0532
     38 CL         -0.1850   -3.0390   -3.7230 Cl      1  UNL1       -0.0828
     39 C          -2.0290    0.5120   -0.2780 C.ar    1  UNL1        0.0539
     40 N          -2.0890    1.8350    0.0100 N.ar    1  UNL1       -0.2208
     41 C          -0.8370    6.3130    0.2390 C.ar    1  UNL1       -0.0387
     42 C          -0.0690    7.4780    0.0950 C.ar    1  UNL1       -0.0389
     43 C           2.1200    9.4450    0.5570 C.3     1  UNL1        0.0250
     44 C           3.4200    8.9960    1.2690 C.3     1  UNL1        0.0144
     45 H           5.9920    9.2250    1.9840 H       1  UNL1        0.0391
     46 H           6.6880    8.7330    0.4460 H       1  UNL1        0.0391
     47 H           5.7210    7.5740    1.3850 H       1  UNL1        0.0391
     48 H           4.3470    7.2550   -0.6180 H       1  UNL1        0.0442
     49 H           5.2180    8.4880   -1.5350 H       1  UNL1        0.0442
     50 H           2.9350    8.1530   -2.4930 H       1  UNL1        0.0476
     51 H           3.1780    9.7800   -1.9110 H       1  UNL1        0.0476
     52 H           2.5050    6.1600   -1.6520 H       1  UNL1        0.0637
     53 H           1.1930    4.1720   -1.4060 H       1  UNL1        0.0637
     54 H          -2.0510    4.0810    0.4500 H       1  UNL1        0.1550
     55 H           0.8080    0.5010   -2.0050 H       1  UNL1        0.0850
     56 H          -0.0790   -1.6970   -1.8760 H       1  UNL1        0.1552
     57 H          -2.3500   -4.5840    0.4120 H       1  UNL1        0.0644
     58 H          -2.4600   -6.7710    0.9970 H       1  UNL1        0.1551
     59 H          -2.9400  -10.9520    0.1200 H       1  UNL1        0.0626
     60 H          -3.8110  -12.2760    2.0460 H       1  UNL1        0.0655
     61 H          -1.7400   -7.7910    2.8440 H       1  UNL1        0.0663
     62 H          -0.5220   -7.5510   -2.1290 H       1  UNL1        0.0636
     63 H           0.1520   -5.8100   -3.6810 H       1  UNL1        0.0633
     64 H          -2.8650   -0.0530    0.1180 H       1  UNL1        0.0850
     65 H          -1.7890    6.3850    0.7580 H       1  UNL1        0.0637
     66 H          -0.4820    8.4060    0.4820 H       1  UNL1        0.0637
     67 H           1.2840    9.3850    1.2620 H       1  UNL1        0.0476
     68 H           2.2070   10.5050    0.2830 H       1  UNL1        0.0476
     69 H           3.2980    7.9640    1.6230 H       1  UNL1        0.0442
     70 H           3.5630    9.6330    2.1500 H       1  UNL1        0.0442
@<TRIPOS>BOND
     1     1     2    1
     2     1    45    1
     3     1    46    1
     4     1    47    1
     5     2     3    1
     6     2    44    1
     7     3     4    1
     8     3    48    1
     9     3    49    1
    10     4     5    1
    11     4    50    1
    12     4    51    1
    13     5     6    1
    14     5    43    1
    15     6     7   ar
    16     6    42   ar
    17     7     8   ar
    18     7    52    1
    19     8     9   ar
    20     8    53    1
    21     9    10    1
    22     9    41   ar
    23    10    11    1
    24    10    54    1
    25    11    12   ar
    26    11    40   ar
    27    12    13   ar
    28    13    14   ar
    29    13    55    1
    30    14    15    1
    31    14    39   ar
    32    15    16   am
    33    15    56    1
    34    16    17    2
    35    16    18    1
    36    18    19   ar
    37    18    37   ar
    38    19    20   ar
    39    19    57    1
    40    20    21    1
    41    20    35   ar
    42    21    22   am
    43    21    58    1
    44    22    23    2
    45    22    24    1
    46    24    25   ar
    47    24    29   ar
    48    25    26   ar
    49    25    59    1
    50    26    27   ar
    51    26    60    1
    52    27    28   ar
    53    27    34    1
    54    28    29   ar
    55    28    30    1
    56    29    61    1
    57    30    31    1
    58    31    32    1
    59    31    33    1
    60    31    34    1
    61    35    36   ar
    62    35    62    1
    63    36    37   ar
    64    36    63    1
    65    37    38    1
    66    39    40   ar
    67    39    64    1
    68    41    42   ar
    69    41    65    1
    70    42    66    1
    71    43    44    1
    72    43    67    1
    73    43    68    1
    74    44    69    1
    75    44    70    1
@<TRIPOS>MOLECULE
AD3CC00082194-I00-C00
 50 53 0 0 0
SMALL
GASTEIGER

@<TRIPOS>ATOM
      1 C           1.8140    3.5680   -0.9810 C.3     1  UNL1       -0.0391
      2 C           2.7720    2.5110   -0.4980 C.ar    1  UNL1       -0.0427
      3 C           4.1100    2.8640   -0.2580 C.ar    1  UNL1       -0.0575
      4 C           5.0290    1.9150    0.1910 C.ar    1  UNL1       -0.0494
      5 C           4.6290    0.5930    0.3940 C.ar    1  UNL1        0.0373
      6 C           5.6410   -0.3880    0.8730 C.2     1  UNL1        0.2443
      7 O           6.5880   -0.0060    1.5520 O.2     1  UNL1       -0.2702
      8 N           5.4520   -1.6990    0.4760 N.am    1  UNL1       -0.3085
      9 C           6.3700   -2.7340    0.8310 C.3     1  UNL1        0.0235
     10 C           6.0820   -3.6370    1.9980 C.3     1  UNL1       -0.0328
     11 C           6.0220   -4.1790    0.6000 C.3     1  UNL1       -0.0328
     12 C           3.2950    0.2330    0.1710 C.ar    1  UNL1       -0.0417
     13 C           2.3540    1.1780   -0.2820 C.ar    1  UNL1       -0.0143
     14 C           0.9680    0.7460   -0.5040 C.ar    1  UNL1       -0.0176
     15 C           0.0710    0.6420    0.5710 C.ar    1  UNL1       -0.0533
     16 C          -1.2470    0.2190    0.3670 C.ar    1  UNL1       -0.0491
     17 C          -1.6880   -0.1010   -0.9230 C.ar    1  UNL1        0.0367
     18 C          -3.0790   -0.5600   -1.1910 C.2     1  UNL1        0.2441
     19 O          -3.3190   -1.2610   -2.1670 O.2     1  UNL1       -0.2702
     20 N          -4.0480   -0.1220   -0.3120 N.am    1  UNL1       -0.3111
     21 C          -5.4410   -0.3910   -0.5770 C.3     1  UNL1        0.0147
     22 C          -6.2430   -0.0560    0.6380 C.3     1  UNL1       -0.0254
     23 C          -6.5990    1.3740    0.9580 C.3     1  UNL1       -0.0485
     24 C          -7.6680    0.4170    0.5040 C.3     1  UNL1       -0.0485
     25 C          -0.7950   -0.0170   -1.9970 C.ar    1  UNL1       -0.0491
     26 C           0.5200    0.4060   -1.7890 C.ar    1  UNL1       -0.0533
     27 H           2.2870    4.5550   -1.0080 H       1  UNL1        0.0278
     28 H           0.9520    3.6410   -0.3110 H       1  UNL1        0.0278
     29 H           1.4730    3.3380   -1.9950 H       1  UNL1        0.0278
     30 H           4.4470    3.8870   -0.4140 H       1  UNL1        0.0621
     31 H           6.0600    2.2100    0.3790 H       1  UNL1        0.0625
     32 H           4.7570   -1.9060   -0.2290 H       1  UNL1        0.1493
     33 H           7.4110   -2.4530    0.6780 H       1  UNL1        0.0498
     34 H           6.9180   -3.9240    2.6260 H       1  UNL1        0.0284
     35 H           5.1520   -3.4970    2.5360 H       1  UNL1        0.0284
     36 H           5.0470   -4.4270    0.1980 H       1  UNL1        0.0284
     37 H           6.8160   -4.8440    0.2810 H       1  UNL1        0.0284
     38 H           2.9600   -0.7830    0.3710 H       1  UNL1        0.0631
     39 H           0.4010    0.8860    1.5790 H       1  UNL1        0.0624
     40 H          -1.9040    0.1200    1.2260 H       1  UNL1        0.0625
     41 H          -3.8370    0.6730    0.2750 H       1  UNL1        0.1490
     42 H          -5.5620   -1.4490   -0.8360 H       1  UNL1        0.0465
     43 H          -5.7390    0.2080   -1.4450 H       1  UNL1        0.0465
     44 H          -6.0180   -0.7220    1.4640 H       1  UNL1        0.0316
     45 H          -6.2990    2.1550    0.2680 H       1  UNL1        0.0269
     46 H          -6.6010    1.6770    1.9990 H       1  UNL1        0.0269
     47 H          -8.0820    0.5520   -0.4890 H       1  UNL1        0.0269
     48 H          -8.3870    0.0730    1.2390 H       1  UNL1        0.0269
     49 H          -1.1230   -0.2810   -3.0010 H       1  UNL1        0.0625
     50 H           1.1980    0.4670   -2.6380 H       1  UNL1        0.0624
@<TRIPOS>BOND
     1     1     2    1
     2     1    27    1
     3     1    28    1
     4     1    29    1
     5     2     3   ar
     6     2    13   ar
     7     3     4   ar
     8     3    30    1
     9     4     5   ar
    10     4    31    1
    11     5     6    1
    12     5    12   ar
    13     6     7    2
    14     6     8   am
    15     8     9    1
    16     8    32    1
    17     9    10    1
    18     9    11    1
    19     9    33    1
    20    10    11    1
    21    10    34    1
    22    10    35    1
    23    11    36    1
    24    11    37    1
    25    12    13   ar
    26    12    38    1
    27    13    14    1
    28    14    15   ar
    29    14    26   ar
    30    15    16   ar
    31    15    39    1
    32    16    17   ar
    33    16    40    1
    34    17    18    1
    35    17    25   ar
    36    18    19    2
    37    18    20   am
    38    20    21    1
    39    20    41    1
    40    21    22    1
    41    21    42    1
    42    21    43    1
    43    22    23    1
    44    22    24    1
    45    22    44    1
    46    23    24    1
    47    23    45    1
    48    23    46    1
    49    24    47    1
    50    24    48    1
    51    25    26   ar
    52    25    49    1
    53    26    50    1
@<TRIPOS>MOLECULE
AD3CC00082992-I00-C00
 37 40 0 0 0
SMALL
GASTEIGER

@<TRIPOS>ATOM
      1 O           0.3140   -0.6970    3.9180 O.co2   1  UNL1       -0.6193
      2 N           0.0550   -0.1790    2.7810 N.ar    1  UNL1       -0.1685
      3 C          -0.3650    1.1330    2.7340 C.ar    1  UNL1        0.1841
      4 C          -0.6690    1.7530    1.5300 C.ar    1  UNL1        0.0132
      5 C          -0.5510    1.0480    0.3190 C.ar    1  UNL1        0.0203
      6 C          -0.8460    1.6270   -0.9460 C.ar    1  UNL1       -0.0055
      7 C          -1.3110    3.0190   -1.0960 C.ar    1  UNL1        0.0013
      8 C          -2.6950    3.2790   -1.1160 C.ar    1  UNL1       -0.0499
      9 C          -3.1760    4.5810   -1.2590 C.ar    1  UNL1       -0.0258
     10 C          -2.2780    5.6330   -1.3860 C.ar    1  UNL1        0.1248
     11 F          -2.7420    6.8810   -1.5230 F       1  UNL1       -0.2054
     12 C          -0.9080    5.4110   -1.3730 C.ar    1  UNL1       -0.0075
     13 C          -0.4250    4.1090   -1.2290 C.ar    1  UNL1        0.0514
     14 CL          1.2900    3.8870   -1.2170 Cl      1  UNL1       -0.0828
     15 C          -0.6980    0.8510   -2.0990 C.ar    1  UNL1       -0.0352
     16 C          -0.2710   -0.4500   -1.9670 C.ar    1  UNL1        0.0291
     17 N           0.0100   -1.0210   -0.7810 N.ar    1  UNL1       -0.2483
     18 C          -0.1190   -0.2980    0.3520 C.ar    1  UNL1        0.1446
     19 C           0.1790   -0.8940    1.5880 C.ar    1  UNL1        0.2551
     20 C           0.6300   -2.2920    1.6930 C.ar    1  UNL1        0.0862
     21 C          -0.2920   -3.3460    1.8410 C.ar    1  UNL1        0.0559
     22 CL         -2.0010   -3.0580    1.8920 Cl      1  UNL1       -0.0827
     23 C           0.1380   -4.6740    1.9470 C.ar    1  UNL1       -0.0425
     24 C           1.4960   -4.9770    1.9080 C.ar    1  UNL1       -0.0590
     25 C           2.4260   -3.9510    1.7600 C.ar    1  UNL1       -0.0425
     26 C           1.9980   -2.6220    1.6540 C.ar    1  UNL1        0.0559
     27 CL          3.2200   -1.4070    1.4650 Cl      1  UNL1       -0.0827
     28 H          -0.4280    1.6010    3.7050 H       1  UNL1        0.1390
     29 H          -0.9940    2.7900    1.5560 H       1  UNL1        0.0684
     30 H          -3.4080    2.4600   -1.0190 H       1  UNL1        0.0625
     31 H          -4.2430    4.7810   -1.2740 H       1  UNL1        0.0646
     32 H          -0.2320    6.2540   -1.4740 H       1  UNL1        0.0661
     33 H          -0.9070    1.2540   -3.0850 H       1  UNL1        0.0639
     34 H          -0.1370   -1.0900   -2.8340 H       1  UNL1        0.0830
     35 H          -0.5860   -5.4770    2.0640 H       1  UNL1        0.0632
     36 H           1.8300   -6.0080    1.9940 H       1  UNL1        0.0618
     37 H           3.4870   -4.1890    1.7310 H       1  UNL1        0.0632
@<TRIPOS>UNITY_ATOM_ATTR
1 1
charge -1
2 1
charge 1
@<TRIPOS>BOND
     1     1     2    1
     2     2     3   ar
     3     2    19   ar
     4     3     4   ar
     5     3    28    1
     6     4     5   ar
     7     4    29    1
     8     5     6   ar
     9     5    18   ar
    10     6     7    1
    11     6    15   ar
    12     7     8   ar
    13     7    13   ar
    14     8     9   ar
    15     8    30    1
    16     9    10   ar
    17     9    31    1
    18    10    11    1
    19    10    12   ar
    20    12    13   ar
    21    12    32    1
    22    13    14    1
    23    15    16   ar
    24    15    33    1
    25    16    17   ar
    26    16    34    1
    27    17    18   ar
    28    18    19   ar
    29    19    20    1
    30    20    21   ar
    31    20    26   ar
    32    21    22    1
    33    21    23   ar
    34    23    24   ar
    35    23    35    1
    36    24    25   ar
    37    24    36    1
    38    25    26   ar
    39    25    37    1
    40    26    27    1
@<TRIPOS>MOLECULE
AD3CC00083291-I00-C00
 52 54 0 0 0
SMALL
GASTEIGER

@<TRIPOS>ATOM
      1 C          -0.8070    3.3660    5.2700 C.3     1  UNL1       -0.0107
      2 S           0.5280    2.1810    4.9860 S.3     1  UNL1       -0.0913
      3 C          -0.1130    1.3070    3.6480 C.ar    1  UNL1        0.1671
      4 N          -1.2670    1.4760    3.0560 N.ar    1  UNL1       -0.2214
      5 C          -1.2930    0.5320    2.0490 C.ar    1  UNL1        0.0976
      6 C          -2.4280    0.4120    1.1470 C.ar    1  UNL1        0.0026
      7 C          -2.2650    0.1290   -0.2170 C.ar    1  UNL1       -0.0498
      8 C          -3.3770    0.0250   -1.0560 C.ar    1  UNL1       -0.0258
      9 C          -4.6510    0.2140   -0.5340 C.ar    1  UNL1        0.1234
     10 F          -5.7160    0.1140   -1.3400 F       1  UNL1       -0.2055
     11 C          -4.8350    0.5110    0.8110 C.ar    1  UNL1       -0.0258
     12 C          -3.7230    0.6150    1.6500 C.ar    1  UNL1       -0.0498
     13 C          -0.1370   -0.2410    2.0610 C.ar    1  UNL1        0.0748
     14 C           0.3140   -1.3990    1.2990 C.ar    1  UNL1        0.0051
     15 C          -0.4860   -2.5320    1.1920 C.ar    1  UNL1       -0.0343
     16 C           0.0010   -3.6060    0.4710 C.ar    1  UNL1        0.0303
     17 N           1.2040   -3.6160   -0.1430 N.ar    1  UNL1       -0.2405
     18 C           1.9640   -2.5110   -0.0500 C.ar    1  UNL1        0.1195
     19 N           3.1900   -2.5750   -0.7060 N.pl3   1  UNL1       -0.3265
     20 C           3.4830   -1.5200   -1.6870 C.3     1  UNL1        0.0194
     21 C           4.9710   -1.6260   -2.0320 C.3     1  UNL1       -0.0467
     22 C           2.5870   -1.6840   -2.9350 C.3     1  UNL1       -0.0325
     23 C           2.8030   -0.6480   -4.0570 C.3     1  UNL1       -0.0451
     24 C           2.5600    0.7850   -3.5810 C.3     1  UNL1       -0.0626
     25 C           1.8750   -0.9630   -5.2340 C.3     1  UNL1       -0.0626
     26 C           1.5620   -1.3950    0.6730 C.ar    1  UNL1       -0.0127
     27 N           0.6060    0.2970    3.0900 N.ar    1  UNL1       -0.3324
     28 H          -1.7380    2.8480    5.5150 H       1  UNL1        0.0345
     29 H          -0.5400    4.0120    6.1110 H       1  UNL1        0.0345
     30 H          -0.9600    3.9940    4.3880 H       1  UNL1        0.0345
     31 H          -1.2730    0.0020   -0.6450 H       1  UNL1        0.0625
     32 H          -3.2570   -0.1950   -2.1120 H       1  UNL1        0.0646
     33 H          -5.8370    0.6650    1.1970 H       1  UNL1        0.0646
     34 H          -3.8670    0.8570    2.7010 H       1  UNL1        0.0625
     35 H          -1.4610   -2.5900    1.6640 H       1  UNL1        0.0639
     36 H          -0.5800   -4.5170    0.3630 H       1  UNL1        0.0830
     37 H           3.2020   -3.5040   -1.1300 H       1  UNL1        0.1477
     38 H           3.3230   -0.5360   -1.2340 H       1  UNL1        0.0495
     39 H           5.2950   -0.7990   -2.6700 H       1  UNL1        0.0247
     40 H           5.5820   -1.5970   -1.1230 H       1  UNL1        0.0247
     41 H           5.1940   -2.5670   -2.5480 H       1  UNL1        0.0247
     42 H           2.7400   -2.6890   -3.3510 H       1  UNL1        0.0285
     43 H           1.5330   -1.6470   -2.6290 H       1  UNL1        0.0285
     44 H           3.8320   -0.7210   -4.4260 H       1  UNL1        0.0296
     45 H           1.5640    0.8940   -3.1400 H       1  UNL1        0.0232
     46 H           2.6400    1.4900   -4.4150 H       1  UNL1        0.0232
     47 H           3.2990    1.0870   -2.8320 H       1  UNL1        0.0232
     48 H           0.8220   -0.8950   -4.9400 H       1  UNL1        0.0232
     49 H           2.0570   -1.9740   -5.6130 H       1  UNL1        0.0232
     50 H           2.0420   -0.2630   -6.0600 H       1  UNL1        0.0232
     51 H           2.2160   -0.5330    0.7460 H       1  UNL1        0.0658
     52 H           1.5070   -0.0210    3.4130 H       1  UNL1        0.1679
@<TRIPOS>BOND
     1     1     2    1
     2     1    28    1
     3     1    29    1
     4     1    30    1
     5     2     3    1
     6     3     4   ar
     7     3    27   ar
     8     4     5   ar
     9     5     6    1
    10     5    13   ar
    11     6     7   ar
    12     6    12   ar
    13     7     8   ar
    14     7    31    1
    15     8     9   ar
    16     8    32    1
    17     9    10    1
    18     9    11   ar
    19    11    12   ar
    20    11    33    1
    21    12    34    1
    22    13    14    1
    23    13    27   ar
    24    14    15   ar
    25    14    26   ar
    26    15    16   ar
    27    15    35    1
    28    16    17   ar
    29    16    36    1
    30    17    18   ar
    31    18    19    1
    32    18    26   ar
    33    19    20    1
    34    19    37    1
    35    20    21    1
    36    20    22    1
    37    20    38    1
    38    21    39    1
    39    21    40    1
    40    21    41    1
    41    22    23    1
    42    22    42    1
    43    22    43    1
    44    23    24    1
    45    23    25    1
    46    23    44    1
    47    24    45    1
    48    24    46    1
    49    24    47    1
    50    25    48    1
    51    25    49    1
    52    25    50    1
    53    26    51    1
    54    27    52    1
@<TRIPOS>MOLECULE
AD3CC00083300-I00-C01
 50 53 0 0 0
SMALL
GASTEIGER

@<TRIPOS>ATOM
      1 C          -5.0110   -0.9140   -5.6030 C.3     1  UNL1       -0.0107
      2 S          -4.9300   -2.0700   -4.2160 S.3     1  UNL1       -0.0913
      3 C          -3.8020   -1.2570   -3.2000 C.ar    1  UNL1        0.1671
      4 N          -3.1870   -0.1260   -3.4260 N.ar    1  UNL1       -0.2214
      5 C          -2.4020    0.0820   -2.3110 C.ar    1  UNL1        0.0976
      6 C          -1.5520    1.2540   -2.1820 C.ar    1  UNL1        0.0026
      7 C          -1.4110    1.9360   -0.9630 C.ar    1  UNL1       -0.0498
      8 C          -0.5760    3.0520   -0.8690 C.ar    1  UNL1       -0.0258
      9 C           0.1090    3.4930   -1.9960 C.ar    1  UNL1        0.1234
     10 F           0.9120    4.5610   -1.9030 F       1  UNL1       -0.2055
     11 C          -0.0310    2.8450   -3.2160 C.ar    1  UNL1       -0.0258
     12 C          -0.8650    1.7280   -3.3100 C.ar    1  UNL1       -0.0498
     13 C          -2.5320   -0.9680   -1.4060 C.ar    1  UNL1        0.0748
     14 C          -1.8850   -1.2910   -0.1390 C.ar    1  UNL1        0.0051
     15 C          -2.6350   -1.6500    0.9770 C.ar    1  UNL1       -0.0343
     16 C          -1.9580   -1.9250    2.1510 C.ar    1  UNL1        0.0303
     17 N          -0.6160   -1.8580    2.2810 N.ar    1  UNL1       -0.2405
     18 C           0.1030   -1.5000    1.2010 C.ar    1  UNL1        0.1195
     19 N           1.4770   -1.4400    1.3980 N.pl3   1  UNL1       -0.3262
     20 C           2.1790   -0.2210    0.9780 C.3     1  UNL1        0.0220
     21 C           1.7780    0.9990    1.8240 C.3     1  UNL1       -0.0345
     22 C           2.3020    0.9340    3.2580 C.3     1  UNL1       -0.0514
     23 C           3.8090    0.7060    3.2970 C.3     1  UNL1       -0.0529
     24 C           4.2150   -0.5280    2.4980 C.3     1  UNL1       -0.0514
     25 C           3.6940   -0.4700    1.0630 C.3     1  UNL1       -0.0345
     26 C          -0.4940   -1.2340   -0.0230 C.ar    1  UNL1       -0.0127
     27 N          -3.4510   -1.8020   -2.0050 N.ar    1  UNL1       -0.3324
     28 H          -5.3690    0.0650   -5.2700 H       1  UNL1        0.0345
     29 H          -4.0290   -0.8020   -6.0700 H       1  UNL1        0.0345
     30 H          -5.7080   -1.3000   -6.3520 H       1  UNL1        0.0345
     31 H          -1.9560    1.6130   -0.0800 H       1  UNL1        0.0625
     32 H          -0.4610    3.5800    0.0710 H       1  UNL1        0.0646
     33 H           0.5040    3.2100   -4.0860 H       1  UNL1        0.0646
     34 H          -0.9790    1.2230   -4.2680 H       1  UNL1        0.0625
     35 H          -3.7170   -1.7000    0.9510 H       1  UNL1        0.0639
     36 H          -2.4940   -2.2100    3.0520 H       1  UNL1        0.0830
     37 H           1.6080   -1.6580    2.3850 H       1  UNL1        0.1477
     38 H           1.9510   -0.0100   -0.0740 H       1  UNL1        0.0498
     39 H           2.1850    1.9000    1.3470 H       1  UNL1        0.0283
     40 H           0.6900    1.1270    1.8420 H       1  UNL1        0.0283
     41 H           1.7940    0.1310    3.8050 H       1  UNL1        0.0266
     42 H           2.0610    1.8690    3.7770 H       1  UNL1        0.0266
     43 H           4.1400    0.5980    4.3360 H       1  UNL1        0.0265
     44 H           4.3210    1.5870    2.8900 H       1  UNL1        0.0265
     45 H           5.3080   -0.6130    2.4860 H       1  UNL1        0.0266
     46 H           3.8370   -1.4280    2.9970 H       1  UNL1        0.0266
     47 H           4.2130    0.3410    0.5360 H       1  UNL1        0.0283
     48 H           3.9550   -1.4010    0.5440 H       1  UNL1        0.0283
     49 H           0.1190   -0.9930   -0.8850 H       1  UNL1        0.0658
     50 H          -3.7790   -2.6900   -1.6550 H       1  UNL1        0.1679
@<TRIPOS>BOND
     1     1     2    1
     2     1    28    1
     3     1    29    1
     4     1    30    1
     5     2     3    1
     6     3     4   ar
     7     3    27   ar
     8     4     5   ar
     9     5     6    1
    10     5    13   ar
    11     6     7   ar
    12     6    12   ar
    13     7     8   ar
    14     7    31    1
    15     8     9   ar
    16     8    32    1
    17     9    10    1
    18     9    11   ar
    19    11    12   ar
    20    11    33    1
    21    12    34    1
    22    13    14    1
    23    13    27   ar
    24    14    15   ar
    25    14    26   ar
    26    15    16   ar
    27    15    35    1
    28    16    17   ar
    29    16    36    1
    30    17    18   ar
    31    18    19    1
    32    18    26   ar
    33    19    20    1
    34    19    37    1
    35    20    21    1
    36    20    25    1
    37    20    38    1
    38    21    22    1
    39    21    39    1
    40    21    40    1
    41    22    23    1
    42    22    41    1
    43    22    42    1
    44    23    24    1
    45    23    43    1
    46    23    44    1
    47    24    25    1
    48    24    45    1
    49    24    46    1
    50    25    47    1
    51    25    48    1
    52    26    49    1
    53    27    50    1
@<TRIPOS>MOLECULE
AD3CC00084356-I00-C01
 61 65 0 0 0
SMALL
GASTEIGER

@<TRIPOS>ATOM
      1 C          -6.0120   -0.0110   -0.9950 C.3     1  UNL1        0.0789
      2 O          -4.5950    0.0980   -0.9540 O.3     1  UNL1       -0.4933
      3 C          -4.0260    0.3960    0.2640 C.ar    1  UNL1        0.1413
      4 C          -4.7350    0.5990    1.4470 C.ar    1  UNL1       -0.0164
      5 C          -4.0510    0.8960    2.6290 C.ar    1  UNL1       -0.0371
      6 C          -2.6530    0.9950    2.6720 C.ar    1  UNL1        0.0317
      7 N          -2.0220    1.3080    3.8890 N.pl3   1  UNL1       -0.3274
      8 C          -0.6200    1.7730    3.8380 C.3     1  UNL1        0.0250
      9 C          -0.1550    2.2700    5.2280 C.3     1  UNL1        0.0144
     10 N          -0.3380    1.3090    6.3400 N.3     1  UNL1       -0.3024
     11 C           0.6050    0.1960    6.2530 C.3     1  UNL1       -0.0126
     12 C          -1.7410    0.8350    6.3250 C.3     1  UNL1        0.0144
     13 C          -2.2630    0.3140    4.9630 C.3     1  UNL1        0.0250
     14 C          -1.9620    0.8030    1.4640 C.ar    1  UNL1       -0.0158
     15 C          -2.6170    0.5000    0.2600 C.ar    1  UNL1        0.0775
     16 N          -1.9450    0.2920   -0.9580 N.pl3   1  UNL1       -0.2806
     17 C          -0.6200    0.3050   -1.3690 C.ar    1  UNL1        0.2201
     18 N           0.3860    0.5590   -0.5130 N.ar    1  UNL1       -0.2224
     19 C           1.6450    0.5520   -0.9940 C.ar    1  UNL1        0.0365
     20 C           1.9460    0.2840   -2.3030 C.ar    1  UNL1       -0.0014
     21 C           0.8400    0.0490   -3.1030 C.ar    1  UNL1        0.0973
     22 N          -0.4300    0.0490   -2.6740 N.ar    1  UNL1       -0.2124
     23 C           1.0860   -0.2480   -4.5010 C.ar    1  UNL1        0.0911
     24 C           2.3440   -0.4900   -5.0170 C.ar    1  UNL1        0.0121
     25 C           2.1530   -0.7330   -6.3980 C.ar    1  UNL1        0.1506
     26 C           3.1730   -1.0620   -7.4040 C.2     1  UNL1        0.2619
     27 N           2.6760   -1.2350   -8.6660 N.am    1  UNL1       -0.3240
     28 O           4.3700   -1.1810   -7.1620 O.2     1  UNL1       -0.2687
     29 N           0.8440   -0.6350   -6.7220 N.ar    1  UNL1       -0.1659
     30 N           0.2240   -0.3480   -5.5520 N.ar    1  UNL1       -0.2643
     31 C          -1.2100   -0.1710   -5.5390 C.3     1  UNL1        0.0309
     32 C           3.5580   -0.5030   -4.1510 C.3     1  UNL1       -0.0193
     33 C           3.3450    0.3430   -2.8690 C.3     1  UNL1       -0.0200
     34 H          -6.3650   -0.8250   -0.3530 H       1  UNL1        0.0660
     35 H          -6.4890    0.9380   -0.7320 H       1  UNL1        0.0660
     36 H          -6.2980   -0.2530   -2.0230 H       1  UNL1        0.0660
     37 H          -5.8170    0.5440    1.4890 H       1  UNL1        0.0655
     38 H          -4.6330    1.0850    3.5280 H       1  UNL1        0.0637
     39 H          -0.5270    2.6090    3.1340 H       1  UNL1        0.0476
     40 H           0.0430    0.9660    3.5020 H       1  UNL1        0.0476
     41 H          -0.7190    3.1780    5.4780 H       1  UNL1        0.0442
     42 H           0.8960    2.5800    5.1740 H       1  UNL1        0.0442
     43 H           0.4790   -0.4750    7.1100 H       1  UNL1        0.0391
     44 H           1.6350    0.5670    6.2970 H       1  UNL1        0.0391
     45 H           0.4970   -0.3980    5.3400 H       1  UNL1        0.0391
     46 H          -1.8820    0.0620    7.0900 H       1  UNL1        0.0442
     47 H          -2.3750    1.6760    6.6360 H       1  UNL1        0.0442
     48 H          -3.3310    0.1030    5.0830 H       1  UNL1        0.0476
     49 H          -1.7690   -0.6320    4.7080 H       1  UNL1        0.0476
     50 H          -0.8820    0.8740    1.4550 H       1  UNL1        0.0656
     51 H          -2.5620    0.0810   -1.7310 H       1  UNL1        0.1551
     52 H           2.4160    0.7820   -0.2650 H       1  UNL1        0.0834
     53 H           1.6740   -1.1550   -8.8010 H       1  UNL1        0.1453
     54 H           3.2910   -1.4950   -9.4190 H       1  UNL1        0.1453
     55 H          -1.6520   -0.9680   -4.9370 H       1  UNL1        0.0473
     56 H          -1.4380    0.8130   -5.1220 H       1  UNL1        0.0473
     57 H          -1.5920   -0.2280   -6.5620 H       1  UNL1        0.0473
     58 H           4.4370   -0.1320   -4.6880 H       1  UNL1        0.0318
     59 H           3.7610   -1.5420   -3.8640 H       1  UNL1        0.0318
     60 H           4.0740    0.0270   -2.1140 H       1  UNL1        0.0317
     61 H           3.5560    1.3950   -3.1030 H       1  UNL1        0.0317
@<TRIPOS>BOND
     1     1     2    1
     2     1    34    1
     3     1    35    1
     4     1    36    1
     5     2     3    1
     6     3     4   ar
     7     3    15   ar
     8     4     5   ar
     9     4    37    1
    10     5     6   ar
    11     5    38    1
    12     6     7    1
    13     6    14   ar
    14     7     8    1
    15     7    13    1
    16     8     9    1
    17     8    39    1
    18     8    40    1
    19     9    10    1
    20     9    41    1
    21     9    42    1
    22    10    11    1
    23    10    12    1
    24    11    43    1
    25    11    44    1
    26    11    45    1
    27    12    13    1
    28    12    46    1
    29    12    47    1
    30    13    48    1
    31    13    49    1
    32    14    15   ar
    33    14    50    1
    34    15    16    1
    35    16    17    1
    36    16    51    1
    37    17    18   ar
    38    17    22   ar
    39    18    19   ar
    40    19    20   ar
    41    19    52    1
    42    20    21   ar
    43    20    33    1
    44    21    22   ar
    45    21    23    1
    46    23    24   ar
    47    23    30   ar
    48    24    25   ar
    49    24    32    1
    50    25    26    1
    51    25    29   ar
    52    26    27   am
    53    26    28    2
    54    27    53    1
    55    27    54    1
    56    29    30   ar
    57    30    31    1
    58    31    55    1
    59    31    56    1
    60    31    57    1
    61    32    33    1
    62    32    58    1
    63    32    59    1
    64    33    60    1
    65    33    61    1
@<TRIPOS>MOLECULE
AD3CC00089158-I00-C00
 49 52 0 0 0
SMALL
GASTEIGER

@<TRIPOS>ATOM
      1 C          -1.3130   -0.1780   -3.8840 C.3     1  UNL1       -0.0380
      2 C          -1.2890   -1.6330   -3.4970 C.ar    1  UNL1       -0.0292
      3 C          -1.6330   -2.5840   -4.4710 C.ar    1  UNL1       -0.0564
      4 C          -1.6260   -3.9470   -4.1720 C.ar    1  UNL1       -0.0507
      5 C          -1.2800   -4.3980   -2.8950 C.ar    1  UNL1        0.0190
      6 C          -1.2820   -5.8400   -2.6170 C.ar    1  UNL1        0.1382
      7 N          -1.7120   -6.7880   -3.4340 N.ar    1  UNL1       -0.2361
      8 C          -1.5250   -7.9770   -2.7810 C.ar    1  UNL1        0.0458
      9 C          -0.9670   -7.7690   -1.5460 C.ar    1  UNL1        0.0216
     10 N          -0.8140   -6.4130   -1.4530 N.ar    1  UNL1       -0.3444
     11 C          -0.9450   -3.4440   -1.9210 C.ar    1  UNL1       -0.0296
     12 C          -0.9350   -2.0700   -2.2040 C.ar    1  UNL1        0.0373
     13 N          -0.5950   -1.1040   -1.2240 N.am    1  UNL1       -0.2813
     14 C          -0.1170   -1.3260    0.0560 C.2     1  UNL1        0.2483
     15 O           0.1770   -2.4050    0.5580 O.2     1  UNL1       -0.2699
     16 C           0.0940   -0.0920    0.8640 C.ar    1  UNL1        0.0372
     17 C          -0.7770    1.0020    0.7800 C.ar    1  UNL1       -0.0462
     18 C          -0.5460    2.1470    1.5520 C.ar    1  UNL1       -0.0192
     19 C           0.5470    2.2040    2.4180 C.ar    1  UNL1        0.1211
     20 O           0.8940    3.2590    3.2160 O.3     1  UNL1       -0.4859
     21 C           0.0070    4.3810    3.2870 C.3     1  UNL1        0.1313
     22 C           0.1830    5.3470    2.1360 C.ar    1  UNL1        0.0784
     23 C           1.4530    5.8060    1.7880 C.ar    1  UNL1       -0.0370
     24 C           1.5790    6.7050    0.7330 C.ar    1  UNL1       -0.0585
     25 C           0.4400    7.1270    0.0590 C.ar    1  UNL1       -0.0436
     26 C          -0.7850    6.6280    0.4680 C.ar    1  UNL1        0.0280
     27 N          -0.9390    5.7510    1.4850 N.ar    1  UNL1       -0.2565
     28 C           1.4050    1.1040    2.5090 C.ar    1  UNL1       -0.0192
     29 C           1.1790   -0.0430    1.7430 C.ar    1  UNL1       -0.0462
     30 H          -0.3170    0.2620   -3.7660 H       1  UNL1        0.0278
     31 H          -2.0330    0.3680   -3.2660 H       1  UNL1        0.0278
     32 H          -1.6090   -0.0420   -4.9290 H       1  UNL1        0.0278
     33 H          -1.9090   -2.2740   -5.4760 H       1  UNL1        0.0621
     34 H          -1.8950   -4.6650   -4.9450 H       1  UNL1        0.0625
     35 H          -1.8020   -8.9190   -3.2380 H       1  UNL1        0.0845
     36 H          -0.6730   -8.4390   -0.7520 H       1  UNL1        0.0823
     37 H          -0.4170   -5.9130   -0.6710 H       1  UNL1        0.1668
     38 H          -0.7060   -3.7840   -0.9220 H       1  UNL1        0.0643
     39 H          -0.6330   -0.1400   -1.5240 H       1  UNL1        0.1551
     40 H          -1.6550    0.9730    0.1410 H       1  UNL1        0.0626
     41 H          -1.2410    2.9750    1.4480 H       1  UNL1        0.0654
     42 H           0.2560    4.9200    4.2090 H       1  UNL1        0.0763
     43 H          -1.0360    4.0610    3.4020 H       1  UNL1        0.0763
     44 H           2.3320    5.4630    2.3260 H       1  UNL1        0.0637
     45 H           2.5580    7.0740    0.4420 H       1  UNL1        0.0619
     46 H           0.5050    7.8280   -0.7650 H       1  UNL1        0.0633
     47 H          -1.7040    6.9290   -0.0270 H       1  UNL1        0.0829
     48 H           2.2550    1.1370    3.1860 H       1  UNL1        0.0654
     49 H           1.8520   -0.8920    1.8330 H       1  UNL1        0.0626
@<TRIPOS>BOND
     1     1     2    1
     2     1    30    1
     3     1    31    1
     4     1    32    1
     5     2     3   ar
     6     2    12   ar
     7     3     4   ar
     8     3    33    1
     9     4     5   ar
    10     4    34    1
    11     5     6    1
    12     5    11   ar
    13     6     7   ar
    14     6    10   ar
    15     7     8   ar
    16     8     9   ar
    17     8    35    1
    18     9    10   ar
    19     9    36    1
    20    10    37    1
    21    11    12   ar
    22    11    38    1
    23    12    13    1
    24    13    14   am
    25    13    39    1
    26    14    15    2
    27    14    16    1
    28    16    17   ar
    29    16    29   ar
    30    17    18   ar
    31    17    40    1
    32    18    19   ar
    33    18    41    1
    34    19    20    1
    35    19    28   ar
    36    20    21    1
    37    21    22    1
    38    21    42    1
    39    21    43    1
    40    22    23   ar
    41    22    27   ar
    42    23    24   ar
    43    23    44    1
    44    24    25   ar
    45    24    45    1
    46    25    26   ar
    47    25    46    1
    48    26    27   ar
    49    26    47    1
    50    28    29   ar
    51    28    48    1
    52    29    49    1
@<TRIPOS>MOLECULE
AD3CC00090675-I00-C00
 54 58 0 0 0
SMALL
GASTEIGER

@<TRIPOS>ATOM
      1 C          -0.9350    5.7950   -0.1270 C.3     1  UNL1       -0.0380
      2 C           0.1330    4.7680   -0.3950 C.ar    1  UNL1       -0.0293
      3 C           1.0770    5.0180   -1.4080 C.ar    1  UNL1       -0.0564
      4 C           2.0590    4.0770   -1.7190 C.ar    1  UNL1       -0.0493
      5 C           2.1110    2.8780   -1.0120 C.ar    1  UNL1        0.0385
      6 C           3.1220    1.8530   -1.3800 C.2     1  UNL1        0.2443
      7 O           4.2320    2.1970   -1.7690 O.2     1  UNL1       -0.2702
      8 N           2.6900    0.5430   -1.2820 N.am    1  UNL1       -0.3085
      9 C           3.5240   -0.5760   -1.5850 C.3     1  UNL1        0.0235
     10 C           2.9380   -1.9590   -1.6790 C.3     1  UNL1       -0.0328
     11 C           3.8250   -1.5990   -0.5240 C.3     1  UNL1       -0.0328
     12 C           1.2140    2.6480    0.0370 C.ar    1  UNL1       -0.0282
     13 C           0.2010    3.5680    0.3470 C.ar    1  UNL1        0.0350
     14 N          -0.7780    3.3010    1.3440 N.pl3   1  UNL1       -0.3135
     15 C          -0.9950    2.0810    1.9800 C.ar    1  UNL1        0.0488
     16 C          -1.0920    1.9800    3.3200 C.ar    1  UNL1        0.0249
     17 C          -1.2940    0.6700    4.0160 C.ar    1  UNL1        0.2544
     18 O          -1.4290    0.6870    5.2390 O.2     1  UNL1       -0.2676
     19 N          -1.3150   -0.4990    3.2440 N.ar    1  UNL1       -0.2957
     20 C          -1.6420   -1.7350    3.9310 C.3     1  UNL1        0.0166
     21 C          -1.1810   -0.3460    1.8600 C.ar    1  UNL1        0.1486
     22 C          -1.1410    0.8750    1.2300 C.ar    1  UNL1        0.0586
     23 C          -1.3680    0.6060   -0.1220 C.ar    1  UNL1        0.0608
     24 N          -1.4220   -0.7060   -0.3660 N.ar    1  UNL1       -0.1721
     25 N          -1.1120   -1.2860    0.8370 N.ar    1  UNL1       -0.2128
     26 C          -0.6700   -2.6320    0.8320 C.ar    1  UNL1        0.1029
     27 C          -1.1360   -3.5050   -0.1660 C.ar    1  UNL1       -0.0307
     28 C          -0.6830   -4.8260   -0.2040 C.ar    1  UNL1       -0.0243
     29 C           0.2470   -5.2610    0.7340 C.ar    1  UNL1        0.1263
     30 F           0.6830   -6.5260    0.6920 F       1  UNL1       -0.2054
     31 C           0.7460   -4.3980    1.7010 C.ar    1  UNL1        0.0109
     32 C           0.2920   -3.0830    1.7380 C.ar    1  UNL1        0.1514
     33 F           0.8690   -2.2500    2.6130 F       1  UNL1       -0.2032
     34 H          -0.8940    6.6170   -0.8500 H       1  UNL1        0.0278
     35 H          -0.8040    6.2240    0.8720 H       1  UNL1        0.0278
     36 H          -1.9280    5.3420   -0.2040 H       1  UNL1        0.0278
     37 H           1.0420    5.9450   -1.9770 H       1  UNL1        0.0621
     38 H           2.7720    4.2740   -2.5170 H       1  UNL1        0.0625
     39 H           1.7050    0.3620   -1.1210 H       1  UNL1        0.1493
     40 H           4.3270   -0.3440   -2.2840 H       1  UNL1        0.0498
     41 H           1.8800   -2.0920   -1.4870 H       1  UNL1        0.0284
     42 H           3.3360   -2.6230   -2.4380 H       1  UNL1        0.0284
     43 H           3.3710   -1.4760    0.4520 H       1  UNL1        0.0284
     44 H           4.8260   -2.0120   -0.4980 H       1  UNL1        0.0284
     45 H           1.3330    1.7480    0.6330 H       1  UNL1        0.0644
     46 H          -0.8640    4.1020    1.9670 H       1  UNL1        0.1522
     47 H          -1.0100    2.8360    3.9780 H       1  UNL1        0.0691
     48 H          -2.3710   -1.5430    4.7260 H       1  UNL1        0.0457
     49 H          -0.7370   -2.1390    4.3920 H       1  UNL1        0.0457
     50 H          -2.0870   -2.4610    3.2470 H       1  UNL1        0.0457
     51 H          -1.5020    1.3020   -0.9410 H       1  UNL1        0.0855
     52 H          -1.8590   -3.1710   -0.9090 H       1  UNL1        0.0640
     53 H          -1.0460   -5.5150   -0.9610 H       1  UNL1        0.0647
     54 H           1.4980   -4.7400    2.4030 H       1  UNL1        0.0676
@<TRIPOS>BOND
     1     1     2    1
     2     1    34    1
     3     1    35    1
     4     1    36    1
     5     2     3   ar
     6     2    13   ar
     7     3     4   ar
     8     3    37    1
     9     4     5   ar
    10     4    38    1
    11     5     6    1
    12     5    12   ar
    13     6     7    2
    14     6     8   am
    15     8     9    1
    16     8    39    1
    17     9    10    1
    18     9    11    1
    19     9    40    1
    20    10    11    1
    21    10    41    1
    22    10    42    1
    23    11    43    1
    24    11    44    1
    25    12    13   ar
    26    12    45    1
    27    13    14    1
    28    14    15    1
    29    14    46    1
    30    15    16   ar
    31    15    22   ar
    32    16    17   ar
    33    16    47    1
    34    17    18    2
    35    17    19   ar
    36    19    20    1
    37    19    21   ar
    38    20    48    1
    39    20    49    1
    40    20    50    1
    41    21    22   ar
    42    21    25   ar
    43    22    23   ar
    44    23    24   ar
    45    23    51    1
    46    24    25   ar
    47    25    26    1
    48    26    27   ar
    49    26    32   ar
    50    27    28   ar
    51    27    52    1
    52    28    29   ar
    53    28    53    1
    54    29    30    1
    55    29    31   ar
    56    31    32   ar
    57    31    54    1
    58    32    33    1
@<TRIPOS>MOLECULE
AD3CC00091496-I00-C01
 58 61 0 0 0
SMALL
GASTEIGER

@<TRIPOS>ATOM
      1 C          -0.9570    1.8980    0.2470 C.3     1  UNL1       -0.0373
      2 C          -1.3510    1.1140   -0.9760 C.ar    1  UNL1       -0.0202
      3 C          -1.6790   -0.2640   -0.8790 C.ar    1  UNL1        0.0350
      4 N          -1.6210   -0.9710    0.3550 N.pl3   1  UNL1       -0.3127
      5 C          -2.4910   -0.7790    1.4780 C.ar    1  UNL1        0.0591
      6 C          -3.8510   -0.4350    1.3630 C.ar    1  UNL1        0.0914
      7 C          -4.5400   -0.2270    0.1270 C.1     1  UNL1        0.1026
      8 N          -5.1840   -0.0610   -0.8260 N.1     1  UNL1       -0.1908
      9 C          -4.6090   -0.3210    2.5270 C.ar    1  UNL1        0.0467
     10 N          -4.1430   -0.5460    3.7760 N.ar    1  UNL1       -0.2613
     11 C          -2.8540   -0.9290    3.8690 C.ar    1  UNL1        0.0365
     12 C          -2.0020   -1.0770    2.7760 C.ar    1  UNL1        0.0152
     13 C          -0.6260   -1.5230    3.0110 C.2     1  UNL1       -0.0552
     14 C           0.3740   -0.6430    3.1560 C.2     1  UNL1       -0.0821
     15 C           1.8220   -1.0430    3.2300 C.3     1  UNL1       -0.0216
     16 C           2.6250   -0.5360    2.0140 C.3     1  UNL1        0.0024
     17 N           2.0880   -0.9480    0.6970 N.3     1  UNL1       -0.3006
     18 C           2.7840   -0.2000   -0.3690 C.3     1  UNL1       -0.0010
     19 C           2.2760   -0.5710   -1.7620 C.3     1  UNL1       -0.0388
     20 C           2.3840   -2.0690   -2.0190 C.3     1  UNL1       -0.0354
     21 C           1.7000   -2.8490   -0.8960 C.3     1  UNL1        0.0177
     22 N           1.8960   -4.2890   -1.1060 N.3     1  UNL1       -0.3261
     23 C           2.2450   -2.4020    0.4810 C.3     1  UNL1        0.0141
     24 C          -1.9900   -1.0090   -2.0240 C.ar    1  UNL1       -0.0383
     25 C          -2.0380   -0.4240   -3.2880 C.ar    1  UNL1       -0.0360
     26 C          -1.7460    0.9380   -3.3730 C.ar    1  UNL1        0.0468
     27 N          -1.7300    1.7640   -4.4750 N.ar    1  UNL1       -0.3606
     28 C          -1.3750    3.0330   -4.1120 C.ar    1  UNL1        0.0027
     29 C          -1.1680    3.0340   -2.7520 C.ar    1  UNL1       -0.0364
     30 C          -1.4050    1.7130   -2.2630 C.ar    1  UNL1        0.0043
     31 H          -1.8090    2.0060    0.9230 H       1  UNL1        0.0278
     32 H          -0.6110    2.9030   -0.0110 H       1  UNL1        0.0278
     33 H          -0.1330    1.4030    0.7700 H       1  UNL1        0.0278
     34 H          -0.6410   -0.9410    0.6630 H       1  UNL1        0.1522
     35 H          -5.6620   -0.0460    2.4870 H       1  UNL1        0.0843
     36 H          -2.5090   -1.1260    4.8820 H       1  UNL1        0.0836
     37 H          -0.4530   -2.5950    2.9740 H       1  UNL1        0.0621
     38 H           0.1710    0.4270    3.1590 H       1  UNL1        0.0573
     39 H           1.9260   -2.1300    3.3280 H       1  UNL1        0.0320
     40 H           2.2520   -0.6120    4.1430 H       1  UNL1        0.0320
     41 H           2.6230    0.5620    2.0660 H       1  UNL1        0.0429
     42 H           3.6710   -0.8500    2.1210 H       1  UNL1        0.0429
     43 H           2.6220    0.8750   -0.2280 H       1  UNL1        0.0427
     44 H           3.8670   -0.3750   -0.3190 H       1  UNL1        0.0427
     45 H           2.8490   -0.0250   -2.5200 H       1  UNL1        0.0278
     46 H           1.2320   -0.2560   -1.8700 H       1  UNL1        0.0278
     47 H           3.4440   -2.3470   -2.0850 H       1  UNL1        0.0281
     48 H           1.9290   -2.3080   -2.9880 H       1  UNL1        0.0281
     49 H           0.6220   -2.6480   -0.9310 H       1  UNL1        0.0471
     50 H           1.3450   -4.8050   -0.4200 H       1  UNL1        0.1185
     51 H           1.5200   -4.5470   -2.0180 H       1  UNL1        0.1185
     52 H           1.6910   -2.9530    1.2500 H       1  UNL1        0.0442
     53 H           3.3010   -2.6890    0.5740 H       1  UNL1        0.0442
     54 H          -2.2190   -2.0680   -1.9260 H       1  UNL1        0.0637
     55 H          -2.3030   -1.0080   -4.1630 H       1  UNL1        0.0639
     56 H          -1.9540    1.4650   -5.4140 H       1  UNL1        0.1653
     57 H          -1.3060    3.8240   -4.8470 H       1  UNL1        0.0807
     58 H          -0.8820    3.8980   -2.1670 H       1  UNL1        0.0639
@<TRIPOS>BOND
     1     1     2    1
     2     1    31    1
     3     1    32    1
     4     1    33    1
     5     2     3   ar
     6     2    30   ar
     7     3     4    1
     8     3    24   ar
     9     4     5    1
    10     4    34    1
    11     5     6   ar
    12     5    12   ar
    13     6     7    1
    14     6     9   ar
    15     7     8    3
    16     9    10   ar
    17     9    35    1
    18    10    11   ar
    19    11    12   ar
    20    11    36    1
    21    12    13    1
    22    13    14    2
    23    13    37    1
    24    14    15    1
    25    14    38    1
    26    15    16    1
    27    15    39    1
    28    15    40    1
    29    16    17    1
    30    16    41    1
    31    16    42    1
    32    17    18    1
    33    17    23    1
    34    18    19    1
    35    18    43    1
    36    18    44    1
    37    19    20    1
    38    19    45    1
    39    19    46    1
    40    20    21    1
    41    20    47    1
    42    20    48    1
    43    21    22    1
    44    21    23    1
    45    21    49    1
    46    22    50    1
    47    22    51    1
    48    23    52    1
    49    23    53    1
    50    24    25   ar
    51    24    54    1
    52    25    26   ar
    53    25    55    1
    54    26    27   ar
    55    26    30   ar
    56    27    28   ar
    57    27    56    1
    58    28    29   ar
    59    28    57    1
    60    29    30   ar
    61    29    58    1
@<TRIPOS>MOLECULE
AD3CC00091682-I00-C00
 64 71 0 0 0
SMALL
GASTEIGER

@<TRIPOS>ATOM
      1 C           1.0750   -4.2380    4.5120 C.3     1  UNL1       -0.0124
      2 N          -0.3030   -4.6950    4.5910 N.3     1  UNL1       -0.2991
      3 C          -1.2820   -3.5890    4.3960 C.3     1  UNL1        0.0176
      4 C          -2.2910   -4.1910    3.3870 C.3     1  UNL1        0.0377
      5 C          -2.1930   -5.6790    3.7380 C.3     1  UNL1       -0.0161
      6 C          -0.6780   -5.6930    3.5480 C.3     1  UNL1        0.0276
      7 C          -0.5830   -5.1700    2.0760 C.3     1  UNL1        0.0282
      8 N          -1.6820   -4.1760    2.0320 N.pl3   1  UNL1       -0.3239
      9 C          -1.6710   -3.0940    1.1840 C.ar    1  UNL1        0.0355
     10 C          -0.9230   -3.1030   -0.0020 C.ar    1  UNL1       -0.0045
     11 C          -0.9180   -2.0120   -0.8770 C.ar    1  UNL1        0.1370
     12 F          -0.1880   -2.0980   -2.0000 F       1  UNL1       -0.2046
     13 C          -1.6690   -0.8700   -0.6160 C.ar    1  UNL1        0.0709
     14 C          -1.6430    0.2800   -1.5300 C.ar    1  UNL1        0.0818
     15 C          -2.7260    0.5610   -2.2760 C.ar    1  UNL1       -0.0173
     16 C          -2.5990    1.7360   -3.1760 C.ar    1  UNL1        0.0320
     17 N          -1.5560    2.4970   -3.3020 N.ar    1  UNL1       -0.2355
     18 C          -0.4750    2.1720   -2.5240 C.ar    1  UNL1        0.1645
     19 C           0.7860    2.7280   -2.4110 C.ar    1  UNL1        0.0546
     20 C           1.2300    3.8480   -3.2140 C.ar    1  UNL1       -0.0016
     21 C           0.5800    5.0920   -3.1630 C.ar    1  UNL1       -0.0531
     22 C           1.0340    6.1690   -3.9260 C.ar    1  UNL1       -0.0592
     23 C           2.1450    6.0420   -4.7660 C.ar    1  UNL1       -0.0363
     24 C           2.7710    4.7920   -4.8130 C.ar    1  UNL1        0.0663
     25 N           3.8500    4.3460   -5.5300 N.ar    1  UNL1       -0.2769
     26 N           4.1590    3.0560   -5.3170 N.ar    1  UNL1       -0.1812
     27 C           3.2400    2.6630   -4.4300 C.ar    1  UNL1        0.0575
     28 C           2.3450    3.6970   -4.0660 C.ar    1  UNL1        0.0273
     29 C           1.4530    1.9610   -1.4110 C.ar    1  UNL1        0.1031
     30 C           2.7990    2.1300   -0.8570 C.ar    1  UNL1        0.0056
     31 C           3.3510    3.3960   -0.6530 C.ar    1  UNL1       -0.0343
     32 C           4.6290    3.4810   -0.1250 C.ar    1  UNL1        0.0282
     33 N           5.3770    2.4110    0.2150 N.ar    1  UNL1       -0.2632
     34 C           4.8200    1.1970    0.0200 C.ar    1  UNL1        0.0282
     35 C           3.5530    1.0070   -0.5030 C.ar    1  UNL1       -0.0343
     36 N           0.6710    0.9670   -0.9650 N.ar    1  UNL1       -0.1638
     37 N          -0.4980    1.0870   -1.6420 N.ar    1  UNL1       -0.2127
     38 C          -2.4340   -0.8610    0.5460 C.ar    1  UNL1        0.1370
     39 F          -3.1940    0.2050    0.8440 F       1  UNL1       -0.2046
     40 C          -2.4430   -1.9490    1.4240 C.ar    1  UNL1       -0.0045
     41 H           1.3000   -3.6930    3.5900 H       1  UNL1        0.0391
     42 H           1.2960   -3.5730    5.3540 H       1  UNL1        0.0391
     43 H           1.7630   -5.0870    4.5880 H       1  UNL1        0.0391
     44 H          -1.7710   -3.3830    5.3540 H       1  UNL1        0.0445
     45 H          -0.8300   -2.6630    4.0220 H       1  UNL1        0.0445
     46 H          -3.3070   -3.7940    3.4370 H       1  UNL1        0.0513
     47 H          -2.7200   -6.3260    3.0280 H       1  UNL1        0.0299
     48 H          -2.5200   -5.9120    4.7580 H       1  UNL1        0.0299
     49 H          -0.2070   -6.6670    3.7030 H       1  UNL1        0.0478
     50 H           0.4000   -4.7420    1.8610 H       1  UNL1        0.0479
     51 H          -0.7920   -5.9780    1.3660 H       1  UNL1        0.0479
     52 H          -0.3300   -3.9680   -0.2840 H       1  UNL1        0.0665
     53 H          -3.6530    0.0050   -2.2670 H       1  UNL1        0.0654
     54 H          -3.4930    1.9570   -3.7830 H       1  UNL1        0.0831
     55 H          -0.2930    5.2210   -2.5260 H       1  UNL1        0.0624
     56 H           0.5100    7.1210   -3.8700 H       1  UNL1        0.0618
     57 H           2.4930    6.8800   -5.3610 H       1  UNL1        0.0639
     58 H           4.4170    4.8710   -6.1850 H       1  UNL1        0.1889
     59 H           3.2560    1.6380   -4.0830 H       1  UNL1        0.0854
     60 H           2.8080    4.3050   -0.8830 H       1  UNL1        0.0639
     61 H           5.0980    4.4460    0.0470 H       1  UNL1        0.0830
     62 H           5.4390    0.3520    0.3040 H       1  UNL1        0.0830
     63 H           3.1620    0.0030   -0.6320 H       1  UNL1        0.0639
     64 H          -3.0700   -1.8670    2.3050 H       1  UNL1        0.0665
@<TRIPOS>BOND
     1     1     2    1
     2     1    41    1
     3     1    42    1
     4     1    43    1
     5     2     3    1
     6     2     6    1
     7     3     4    1
     8     3    44    1
     9     3    45    1
    10     4     5    1
    11     4     8    1
    12     4    46    1
    13     5     6    1
    14     5    47    1
    15     5    48    1
    16     6     7    1
    17     6    49    1
    18     7     8    1
    19     7    50    1
    20     7    51    1
    21     8     9    1
    22     9    10   ar
    23     9    40   ar
    24    10    11   ar
    25    10    52    1
    26    11    12    1
    27    11    13   ar
    28    13    14    1
    29    13    38   ar
    30    14    15   ar
    31    14    37   ar
    32    15    16   ar
    33    15    53    1
    34    16    17   ar
    35    16    54    1
    36    17    18   ar
    37    18    19   ar
    38    18    37   ar
    39    19    20    1
    40    19    29   ar
    41    20    21   ar
    42    20    28   ar
    43    21    22   ar
    44    21    55    1
    45    22    23   ar
    46    22    56    1
    47    23    24   ar
    48    23    57    1
    49    24    25   ar
    50    24    28   ar
    51    25    26   ar
    52    25    58    1
    53    26    27   ar
    54    27    28   ar
    55    27    59    1
    56    29    30    1
    57    29    36   ar
    58    30    31   ar
    59    30    35   ar
    60    31    32   ar
    61    31    60    1
    62    32    33   ar
    63    32    61    1
    64    33    34   ar
    65    34    35   ar
    66    34    62    1
    67    35    63    1
    68    36    37   ar
    69    38    39    1
    70    38    40   ar
    71    40    64    1
@<TRIPOS>MOLECULE
AD3CC00092163-I00-C00
 65 69 0 0 0
SMALL
GASTEIGER

@<TRIPOS>ATOM
      1 C           7.9580   -5.0800   -3.4370 C.3     1  UNL1        0.0833
      2 O           7.1940   -4.5990   -2.3310 O.3     1  UNL1       -0.4535
      3 C           6.0790   -3.9040   -2.6860 C.2     1  UNL1        0.4043
      4 O           5.7530   -3.6860   -3.8430 O.2     1  UNL1       -0.2261
      5 N           5.4360   -3.5270   -1.5410 N.am    1  UNL1       -0.2512
      6 C           4.2440   -2.7970   -1.4060 C.ar    1  UNL1        0.0365
      7 C           3.7900   -2.5410   -0.1100 C.ar    1  UNL1       -0.0397
      8 C           2.6100   -1.8150    0.1040 C.ar    1  UNL1       -0.0493
      9 C           1.8430   -1.3210   -0.9670 C.ar    1  UNL1        0.0194
     10 C           0.6000   -0.5480   -0.7440 C.ar    1  UNL1        0.1641
     11 N          -0.0590   -0.1170   -1.8470 N.ar    1  UNL1       -0.2118
     12 C          -1.2090    0.5960   -1.7310 C.ar    1  UNL1        0.1361
     13 N          -1.8880    1.0470   -2.8770 N.pl3   1  UNL1       -0.3101
     14 C          -1.0600    0.9760   -4.1040 C.3     1  UNL1        0.0370
     15 C          -1.8580    1.5340   -5.2920 C.3     1  UNL1        0.0634
     16 O          -3.0900    0.8150   -5.4780 O.3     1  UNL1       -0.3767
     17 C          -3.9020    0.9070   -4.2950 C.3     1  UNL1        0.0634
     18 C          -3.1760    0.3390   -3.0630 C.3     1  UNL1        0.0370
     19 C          -1.6430    0.8890   -0.4310 C.ar    1  UNL1        0.0785
     20 C          -2.6790    1.6140    0.1910 C.ar    1  UNL1        0.0620
     21 N          -2.6200    1.5700    1.5260 N.ar    1  UNL1       -0.1768
     22 N          -1.5250    0.8140    1.7680 N.ar    1  UNL1       -0.2431
     23 C          -1.0840    0.5370    3.1310 C.3     1  UNL1        0.0578
     24 C          -0.1390    1.6220    3.6550 C.3     1  UNL1       -0.0144
     25 C          -0.8820    2.8670    4.1240 C.3     1  UNL1        0.0197
     26 N          -1.9390    2.5330    5.0740 N.am    1  UNL1       -0.2673
     27 C          -2.3510    3.4340    6.0490 C.2     1  UNL1        0.4026
     28 O          -3.3790    3.3130    6.7070 O.2     1  UNL1       -0.2263
     29 O          -1.4820    4.4700    6.2060 O.3     1  UNL1       -0.4536
     30 C          -1.8670    5.4110    7.2110 C.3     1  UNL1        0.0833
     31 C          -2.9020    1.5280    4.6420 C.3     1  UNL1        0.0197
     32 C          -2.2270    0.2620    4.1210 C.3     1  UNL1       -0.0144
     33 C          -0.8950    0.3960    0.6210 C.ar    1  UNL1        0.1642
     34 N           0.2290   -0.3330    0.5340 N.ar    1  UNL1       -0.2080
     35 C           2.3190   -1.5950   -2.2620 C.ar    1  UNL1       -0.0493
     36 C           3.4990   -2.3210   -2.4820 C.ar    1  UNL1       -0.0397
     37 H           7.3660   -5.7810   -4.0340 H       1  UNL1        0.0661
     38 H           8.3130   -4.2480   -4.0520 H       1  UNL1        0.0661
     39 H           8.8280   -5.6130   -3.0420 H       1  UNL1        0.0661
     40 H           5.9090   -3.8270   -0.7000 H       1  UNL1        0.1582
     41 H           4.3440   -2.8980    0.7550 H       1  UNL1        0.0636
     42 H           2.2920   -1.6350    1.1300 H       1  UNL1        0.0625
     43 H          -0.7910   -0.0670   -4.3220 H       1  UNL1        0.0487
     44 H          -0.1420    1.5640   -3.9850 H       1  UNL1        0.0487
     45 H          -2.0850    2.5980   -5.1520 H       1  UNL1        0.0575
     46 H          -1.2750    1.4330   -6.2130 H       1  UNL1        0.0575
     47 H          -4.8200    0.3390   -4.4780 H       1  UNL1        0.0575
     48 H          -4.1820    1.9560   -4.1380 H       1  UNL1        0.0575
     49 H          -3.8300    0.4550   -2.1920 H       1  UNL1        0.0487
     50 H          -2.9890   -0.7320   -3.2160 H       1  UNL1        0.0487
     51 H          -3.4730    2.1790   -0.2810 H       1  UNL1        0.0856
     52 H          -0.5090   -0.3970    3.0540 H       1  UNL1        0.0546
     53 H           0.6050    1.8960    2.8990 H       1  UNL1        0.0301
     54 H           0.4170    1.2110    4.5090 H       1  UNL1        0.0301
     55 H          -1.3440    3.3980    3.2840 H       1  UNL1        0.0466
     56 H          -0.1580    3.5520    4.5750 H       1  UNL1        0.0466
     57 H          -2.8070    5.9010    6.9360 H       1  UNL1        0.0661
     58 H          -1.0860    6.1740    7.2760 H       1  UNL1        0.0661
     59 H          -1.9540    4.9220    8.1850 H       1  UNL1        0.0661
     60 H          -3.5620    1.2580    5.4750 H       1  UNL1        0.0466
     61 H          -3.5430    1.9890    3.8820 H       1  UNL1        0.0466
     62 H          -2.9780   -0.4040    3.6790 H       1  UNL1        0.0301
     63 H          -1.8020   -0.2700    4.9830 H       1  UNL1        0.0301
     64 H           1.7680   -1.2390   -3.1320 H       1  UNL1        0.0625
     65 H           3.8040   -2.4920   -3.5100 H       1  UNL1        0.0636
@<TRIPOS>BOND
     1     1     2    1
     2     1    37    1
     3     1    38    1
     4     1    39    1
     5     2     3    1
     6     3     4    2
     7     3     5   am
     8     5     6    1
     9     5    40    1
    10     6     7   ar
    11     6    36   ar
    12     7     8   ar
    13     7    41    1
    14     8     9   ar
    15     8    42    1
    16     9    10    1
    17     9    35   ar
    18    10    11   ar
    19    10    34   ar
    20    11    12   ar
    21    12    13    1
    22    12    19   ar
    23    13    14    1
    24    13    18    1
    25    14    15    1
    26    14    43    1
    27    14    44    1
    28    15    16    1
    29    15    45    1
    30    15    46    1
    31    16    17    1
    32    17    18    1
    33    17    47    1
    34    17    48    1
    35    18    49    1
    36    18    50    1
    37    19    20   ar
    38    19    33   ar
    39    20    21   ar
    40    20    51    1
    41    21    22   ar
    42    22    23    1
    43    22    33   ar
    44    23    24    1
    45    23    32    1
    46    23    52    1
    47    24    25    1
    48    24    53    1
    49    24    54    1
    50    25    26    1
    51    25    55    1
    52    25    56    1
    53    26    27   am
    54    26    31    1
    55    27    28    2
    56    27    29    1
    57    29    30    1
    58    30    57    1
    59    30    58    1
    60    30    59    1
    61    31    32    1
    62    31    60    1
    63    31    61    1
    64    32    62    1
    65    32    63    1
    66    33    34   ar
    67    35    36   ar
    68    35    64    1
    69    36    65    1
@<TRIPOS>MOLECULE
AD3CC00092732-I00-C00
 55 59 0 0 0
SMALL
GASTEIGER

@<TRIPOS>ATOM
      1 C          -0.9320   -1.9870    3.7200 C.3     1  UNL1       -0.0391
      2 C           0.2620   -1.0870    3.9020 C.ar    1  UNL1       -0.0427
      3 C           0.8660   -1.0040    5.1670 C.ar    1  UNL1       -0.0575
      4 C           1.9720   -0.1800    5.3780 C.ar    1  UNL1       -0.0494
      5 C           2.5000    0.5670    4.3230 C.ar    1  UNL1        0.0373
      6 C           3.6810    1.4330    4.5900 C.2     1  UNL1        0.2443
      7 O           3.8610    1.8920    5.7130 O.2     1  UNL1       -0.2702
      8 N           4.5390    1.6370    3.5250 N.am    1  UNL1       -0.3085
      9 C           5.7300    2.4140    3.6550 C.3     1  UNL1        0.0235
     10 C           6.5130    2.8260    2.4370 C.3     1  UNL1       -0.0328
     11 C           5.7490    3.8530    3.2200 C.3     1  UNL1       -0.0328
     12 C           1.8970    0.5050    3.0610 C.ar    1  UNL1       -0.0417
     13 C           0.7800   -0.3220    2.8330 C.ar    1  UNL1       -0.0142
     14 C           0.1840   -0.3510    1.4900 C.ar    1  UNL1       -0.0158
     15 C           0.5600   -1.3540    0.5640 C.ar    1  UNL1       -0.0536
     16 C           0.0130   -1.4040   -0.7240 C.ar    1  UNL1       -0.0552
     17 C          -0.9130   -0.4370   -1.0780 C.ar    1  UNL1       -0.0112
     18 C          -1.2790    0.5490   -0.1650 C.ar    1  UNL1        0.0382
     19 C          -0.7540    0.6210    1.1090 C.ar    1  UNL1       -0.0325
     20 N          -2.2110    1.3980   -0.7340 N.am    1  UNL1       -0.2845
     21 C          -2.5130    1.0260   -2.0370 C.2     1  UNL1        0.2278
     22 O          -3.3020    1.6080   -2.7630 O.2     1  UNL1       -0.2745
     23 C          -1.6680   -0.2380   -2.3820 C.3     1  UNL1        0.0740
     24 C          -2.5890   -1.4350   -2.6680 C.3     1  UNL1       -0.0326
     25 C          -3.2370   -1.3800   -4.0540 C.3     1  UNL1       -0.0256
     26 C          -2.2150   -1.1500   -5.1640 C.3     1  UNL1        0.0553
     27 O          -1.3540   -2.2860   -5.2320 O.3     1  UNL1       -0.3918
     28 C          -1.3810    0.1010   -4.9060 C.3     1  UNL1       -0.0256
     29 C          -0.6980    0.0690   -3.5350 C.3     1  UNL1       -0.0326
     30 H          -1.7950   -1.4130    3.3670 H       1  UNL1        0.0278
     31 H          -0.7030   -2.7840    3.0060 H       1  UNL1        0.0278
     32 H          -1.2220   -2.4630    4.6630 H       1  UNL1        0.0278
     33 H           0.4740   -1.5800    6.0040 H       1  UNL1        0.0621
     34 H           2.4210   -0.1240    6.3670 H       1  UNL1        0.0625
     35 H           4.4260    1.0810    2.6880 H       1  UNL1        0.1493
     36 H           6.3070    2.1660    4.5440 H       1  UNL1        0.0498
     37 H           6.1380    2.5590    1.4570 H       1  UNL1        0.0284
     38 H           7.5940    2.8330    2.5120 H       1  UNL1        0.0284
     39 H           4.8490    4.2680    2.7840 H       1  UNL1        0.0284
     40 H           6.3060    4.5520    3.8330 H       1  UNL1        0.0284
     41 H           2.2680    1.1190    2.2440 H       1  UNL1        0.0631
     42 H           1.2870   -2.1110    0.8560 H       1  UNL1        0.0624
     43 H           0.3080   -2.1830   -1.4190 H       1  UNL1        0.0621
     44 H          -1.0610    1.4000    1.7990 H       1  UNL1        0.0642
     45 H          -2.6390    2.1930   -0.2830 H       1  UNL1        0.1548
     46 H          -3.3820   -1.5030   -1.9120 H       1  UNL1        0.0279
     47 H          -2.0190   -2.3710   -2.5930 H       1  UNL1        0.0279
     48 H          -3.7620   -2.3280   -4.2260 H       1  UNL1        0.0290
     49 H          -3.9930   -0.5870   -4.0800 H       1  UNL1        0.0290
     50 H          -2.7320   -1.0680   -6.1260 H       1  UNL1        0.0593
     51 H          -0.7860   -2.1700   -6.0130 H       1  UNL1        0.2098
     52 H          -0.6050    0.1950   -5.6750 H       1  UNL1        0.0290
     53 H          -2.0180    0.9900   -4.9840 H       1  UNL1        0.0290
     54 H           0.0960   -0.6890   -3.5660 H       1  UNL1        0.0279
     55 H          -0.1940    1.0300   -3.3710 H       1  UNL1        0.0279
@<TRIPOS>BOND
     1     1     2    1
     2     1    30    1
     3     1    31    1
     4     1    32    1
     5     2     3   ar
     6     2    13   ar
     7     3     4   ar
     8     3    33    1
     9     4     5   ar
    10     4    34    1
    11     5     6    1
    12     5    12   ar
    13     6     7    2
    14     6     8   am
    15     8     9    1
    16     8    35    1
    17     9    10    1
    18     9    11    1
    19     9    36    1
    20    10    11    1
    21    10    37    1
    22    10    38    1
    23    11    39    1
    24    11    40    1
    25    12    13   ar
    26    12    41    1
    27    13    14    1
    28    14    15   ar
    29    14    19   ar
    30    15    16   ar
    31    15    42    1
    32    16    17   ar
    33    16    43    1
    34    17    18   ar
    35    17    23    1
    36    18    19   ar
    37    18    20    1
    38    19    44    1
    39    20    21   am
    40    20    45    1
    41    21    22    2
    42    23    21    1
    43    23    24    1
    44    23    29    1
    45    24    25    1
    46    24    46    1
    47    24    47    1
    48    25    26    1
    49    25    48    1
    50    25    49    1
    51    26    27    1
    52    26    28    1
    53    26    50    1
    54    27    51    1
    55    28    29    1
    56    28    52    1
    57    28    53    1
    58    29    54    1
    59    29    55    1
@<TRIPOS>MOLECULE
AD3CC00092734-I00-C00
 67 72 0 0 0
SMALL
GASTEIGER

@<TRIPOS>ATOM
      1 C          -2.2940   -0.0530    3.4720 C.3     1  UNL1       -0.0391
      2 C          -3.3050    0.6310    2.5880 C.ar    1  UNL1       -0.0427
      3 C          -4.5750    0.9290    3.1090 C.ar    1  UNL1       -0.0575
      4 C          -5.5430    1.5560    2.3220 C.ar    1  UNL1       -0.0494
      5 C          -5.2490    1.9020    1.0010 C.ar    1  UNL1        0.0373
      6 C          -6.2470    2.5650    0.1190 C.2     1  UNL1        0.2443
      7 O          -6.2220    2.3650   -1.0910 O.2     1  UNL1       -0.2702
      8 N          -7.1450    3.4100    0.7450 N.am    1  UNL1       -0.3085
      9 C          -8.1160    4.1590    0.0120 C.3     1  UNL1        0.0235
     10 C          -7.9180    5.6300   -0.2310 C.3     1  UNL1       -0.0328
     11 C          -8.9940    5.1650    0.7050 C.3     1  UNL1       -0.0328
     12 C          -3.9900    1.5960    0.4680 C.ar    1  UNL1       -0.0417
     13 C          -3.0030    0.9680    1.2490 C.ar    1  UNL1       -0.0142
     14 C          -1.6940    0.6820    0.6450 C.ar    1  UNL1       -0.0158
     15 C          -1.5140   -0.4740   -0.1520 C.ar    1  UNL1       -0.0536
     16 C          -0.2780   -0.7760   -0.7360 C.ar    1  UNL1       -0.0552
     17 C           0.7780    0.0920   -0.5180 C.ar    1  UNL1       -0.0112
     18 C           0.5950    1.2330    0.2590 C.ar    1  UNL1        0.0382
     19 C          -0.6120    1.5540    0.8450 C.ar    1  UNL1       -0.0325
     20 N           1.7750    1.9490    0.3350 N.am    1  UNL1       -0.2845
     21 C           2.7940    1.3340   -0.3780 C.2     1  UNL1        0.2278
     22 O           3.9310    1.7660   -0.4730 O.2     1  UNL1       -0.2745
     23 C           2.2180    0.0280   -1.0050 C.3     1  UNL1        0.0739
     24 C           2.9260   -1.2060   -0.4390 C.3     1  UNL1       -0.0335
     25 C           4.3210   -1.4350   -1.0240 C.3     1  UNL1       -0.0361
     26 C           4.3320   -1.4720   -2.5690 C.3     1  UNL1        0.0107
     27 N           5.7080   -1.6610   -3.1100 N.3     1  UNL1       -0.2951
     28 C           5.7260   -1.7220   -4.5940 C.3     1  UNL1        0.0227
     29 C           7.1270   -2.0090   -5.1610 C.3     1  UNL1        0.0604
     30 O           7.6550   -3.2330   -4.6440 O.3     1  UNL1       -0.3772
     31 C           7.7380   -3.1470   -3.2190 C.3     1  UNL1        0.0604
     32 C           6.3560   -2.8930   -2.5940 C.3     1  UNL1        0.0227
     33 C           3.6860   -0.1690   -3.0960 C.3     1  UNL1       -0.0361
     34 C           2.2840    0.0780   -2.5340 C.3     1  UNL1       -0.0335
     35 H          -1.9610   -0.9920    3.0190 H       1  UNL1        0.0278
     36 H          -2.7210   -0.2990    4.4510 H       1  UNL1        0.0278
     37 H          -1.4330    0.6000    3.6430 H       1  UNL1        0.0278
     38 H          -4.8230    0.6600    4.1340 H       1  UNL1        0.0621
     39 H          -6.5270    1.7360    2.7460 H       1  UNL1        0.0625
     40 H          -7.0000    3.6470    1.7180 H       1  UNL1        0.1493
     41 H          -8.5760    3.5880   -0.7930 H       1  UNL1        0.0498
     42 H          -7.0410    6.1080    0.1890 H       1  UNL1        0.0284
     43 H          -8.2120    6.0190   -1.1990 H       1  UNL1        0.0284
     44 H         -10.0230    5.2460    0.3750 H       1  UNL1        0.0284
     45 H          -8.8550    5.3420    1.7650 H       1  UNL1        0.0284
     46 H          -3.7740    1.8550   -0.5680 H       1  UNL1        0.0631
     47 H          -2.3530   -1.1490   -0.3150 H       1  UNL1        0.0624
     48 H          -0.1620   -1.6700   -1.3400 H       1  UNL1        0.0621
     49 H          -0.7230    2.4510    1.4440 H       1  UNL1        0.0642
     50 H           1.9090    2.8180    0.8300 H       1  UNL1        0.1548
     51 H           2.3270   -2.1050   -0.6390 H       1  UNL1        0.0279
     52 H           3.0110   -1.1350    0.6540 H       1  UNL1        0.0279
     53 H           4.6780   -2.3850   -0.6100 H       1  UNL1        0.0281
     54 H           5.0070   -0.6580   -0.6630 H       1  UNL1        0.0281
     55 H           3.7060   -2.3160   -2.8910 H       1  UNL1        0.0462
     56 H           5.0390   -2.5050   -4.9370 H       1  UNL1        0.0449
     57 H           5.4060   -0.7680   -5.0240 H       1  UNL1        0.0449
     58 H           7.0700   -2.1080   -6.2500 H       1  UNL1        0.0572
     59 H           7.8200   -1.1890   -4.9400 H       1  UNL1        0.0572
     60 H           8.4500   -2.3590   -2.9410 H       1  UNL1        0.0572
     61 H           8.1390   -4.0970   -2.8520 H       1  UNL1        0.0572
     62 H           6.5120   -2.8230   -1.5130 H       1  UNL1        0.0449
     63 H           5.7120   -3.7580   -2.7960 H       1  UNL1        0.0449
     64 H           3.5810   -0.2000   -4.1860 H       1  UNL1        0.0281
     65 H           4.3320    0.6870   -2.8660 H       1  UNL1        0.0281
     66 H           1.6130   -0.6810   -2.9610 H       1  UNL1        0.0279
     67 H           1.9220    1.0460   -2.9040 H       1  UNL1        0.0279
@<TRIPOS>BOND
     1     1     2    1
     2     1    35    1
     3     1    36    1
     4     1    37    1
     5     2     3   ar
     6     2    13   ar
     7     3     4   ar
     8     3    38    1
     9     4     5   ar
    10     4    39    1
    11     5     6    1
    12     5    12   ar
    13     6     7    2
    14     6     8   am
    15     8     9    1
    16     8    40    1
    17     9    10    1
    18     9    11    1
    19     9    41    1
    20    10    11    1
    21    10    42    1
    22    10    43    1
    23    11    44    1
    24    11    45    1
    25    12    13   ar
    26    12    46    1
    27    13    14    1
    28    14    15   ar
    29    14    19   ar
    30    15    16   ar
    31    15    47    1
    32    16    17   ar
    33    16    48    1
    34    17    18   ar
    35    17    23    1
    36    18    19   ar
    37    18    20    1
    38    19    49    1
    39    20    21   am
    40    20    50    1
    41    21    22    2
    42    23    21    1
    43    23    24    1
    44    23    34    1
    45    24    25    1
    46    24    51    1
    47    24    52    1
    48    25    26    1
    49    25    53    1
    50    25    54    1
    51    26    27    1
    52    26    33    1
    53    26    55    1
    54    27    28    1
    55    27    32    1
    56    28    29    1
    57    28    56    1
    58    28    57    1
    59    29    30    1
    60    29    58    1
    61    29    59    1
    62    30    31    1
    63    31    32    1
    64    31    60    1
    65    31    61    1
    66    32    62    1
    67    32    63    1
    68    33    34    1
    69    33    64    1
    70    33    65    1
    71    34    66    1
    72    34    67    1
@<TRIPOS>MOLECULE
AD3CC00092740-I00-C00
 50 54 0 0 0
SMALL
GASTEIGER

@<TRIPOS>ATOM
      1 C           3.2710   -2.5220   -0.4310 C.3     1  UNL1       -0.0391
      2 C           2.1660   -2.6880    0.5800 C.ar    1  UNL1       -0.0412
      3 C           2.3290   -3.6560    1.5870 C.ar    1  UNL1       -0.0575
      4 C           1.3290   -3.8800    2.5330 C.ar    1  UNL1       -0.0493
      5 C           0.1440   -3.1460    2.4830 C.ar    1  UNL1        0.0373
      6 C          -0.9110   -3.4280    3.4930 C.2     1  UNL1        0.2443
      7 O          -0.5990   -3.8450    4.6030 O.2     1  UNL1       -0.2702
      8 N          -2.2150   -3.2240    3.0790 N.am    1  UNL1       -0.3085
      9 C          -3.3290   -3.4960    3.9300 C.3     1  UNL1        0.0235
     10 C          -4.7120   -3.0420    3.5490 C.3     1  UNL1       -0.0328
     11 C          -3.9940   -2.3810    4.6890 C.3     1  UNL1       -0.0328
     12 C          -0.0120   -2.1530    1.5090 C.ar    1  UNL1       -0.0402
     13 C           0.9930   -1.8970    0.5530 C.ar    1  UNL1        0.0040
     14 C           0.7630   -0.8210   -0.4270 C.ar    1  UNL1        0.0730
     15 C           1.6080    0.2800   -0.5310 C.ar    1  UNL1       -0.0141
     16 C           1.2640    1.2160   -1.4760 C.ar    1  UNL1        0.0411
     17 C           0.1400    1.0890   -2.2760 C.ar    1  UNL1        0.0069
     18 C          -0.6520   -0.0150   -2.1070 C.ar    1  UNL1        0.0342
     19 N          -0.3640   -0.9680   -1.1900 N.ar    1  UNL1       -0.2545
     20 C           0.0330    2.2640   -3.2070 C.3     1  UNL1        0.0752
     21 C          -1.2430    3.0950   -3.0050 C.3     1  UNL1       -0.0349
     22 C          -1.6100    3.5700   -4.4050 C.3     1  UNL1       -0.0518
     23 C          -1.2440    2.3830   -5.2780 C.3     1  UNL1       -0.0518
     24 C           0.0780    1.8880   -4.6980 C.3     1  UNL1       -0.0349
     25 C           1.2860    3.0860   -2.8020 C.2     1  UNL1        0.2278
     26 O           1.6530    4.1510   -3.2710 O.2     1  UNL1       -0.2745
     27 N           1.9320    2.3900   -1.7870 N.am    1  UNL1       -0.2844
     28 H           3.9030   -1.6690   -0.1660 H       1  UNL1        0.0278
     29 H           2.8660   -2.3810   -1.4380 H       1  UNL1        0.0278
     30 H           3.9050   -3.4140   -0.4720 H       1  UNL1        0.0278
     31 H           3.2380   -4.2540    1.6350 H       1  UNL1        0.0621
     32 H           1.4710   -4.6380    3.3010 H       1  UNL1        0.0625
     33 H          -2.3980   -3.0550    2.0970 H       1  UNL1        0.1493
     34 H          -3.2540   -4.4550    4.4380 H       1  UNL1        0.0498
     35 H          -5.5410   -3.6990    3.7850 H       1  UNL1        0.0284
     36 H          -4.8440   -2.4700    2.6380 H       1  UNL1        0.0284
     37 H          -3.6230   -1.3730    4.5480 H       1  UNL1        0.0284
     38 H          -4.3260   -2.5940    5.6990 H       1  UNL1        0.0284
     39 H          -0.9110   -1.5390    1.4930 H       1  UNL1        0.0632
     40 H           2.4780    0.3950    0.1020 H       1  UNL1        0.0658
     41 H          -1.5480   -0.1850   -2.6950 H       1  UNL1        0.0833
     42 H          -1.1070    3.9420   -2.3230 H       1  UNL1        0.0278
     43 H          -2.0630    2.4840   -2.6090 H       1  UNL1        0.0278
     44 H          -1.0100    4.4450   -4.6800 H       1  UNL1        0.0266
     45 H          -2.6670    3.8380   -4.4880 H       1  UNL1        0.0266
     46 H          -2.0070    1.6000   -5.1890 H       1  UNL1        0.0266
     47 H          -1.1570    2.6530   -6.3340 H       1  UNL1        0.0266
     48 H           0.9070    2.3920   -5.2100 H       1  UNL1        0.0278
     49 H           0.1960    0.8140   -4.8770 H       1  UNL1        0.0278
     50 H           2.7780    2.7270   -1.3520 H       1  UNL1        0.1548
@<TRIPOS>BOND
     1     1     2    1
     2     1    28    1
     3     1    29    1
     4     1    30    1
     5     2     3   ar
     6     2    13   ar
     7     3     4   ar
     8     3    31    1
     9     4     5   ar
    10     4    32    1
    11     5     6    1
    12     5    12   ar
    13     6     7    2
    14     6     8   am
    15     8     9    1
    16     8    33    1
    17     9    10    1
    18     9    11    1
    19     9    34    1
    20    10    11    1
    21    10    35    1
    22    10    36    1
    23    11    37    1
    24    11    38    1
    25    12    13   ar
    26    12    39    1
    27    13    14    1
    28    14    15   ar
    29    14    19   ar
    30    15    16   ar
    31    15    40    1
    32    16    17   ar
    33    16    27    1
    34    17    18   ar
    35    17    20    1
    36    18    19   ar
    37    18    41    1
    38    20    21    1
    39    20    24    1
    40    20    25    1
    41    21    22    1
    42    21    42    1
    43    21    43    1
    44    22    23    1
    45    22    44    1
    46    22    45    1
    47    23    24    1
    48    23    46    1
    49    23    47    1
    50    24    48    1
    51    24    49    1
    52    25    26    2
    53    25    27   am
    54    27    50    1
@<TRIPOS>MOLECULE
AD3CC00092752-I00-C01
 53 56 0 0 0
SMALL
GASTEIGER

@<TRIPOS>ATOM
      1 C          -1.9290    2.8960   -1.5140 C.3     1  UNL1       -0.0391
      2 C          -0.9940    2.6980   -0.3490 C.ar    1  UNL1       -0.0427
      3 C          -0.5650    3.8210    0.3770 C.ar    1  UNL1       -0.0575
      4 C           0.3030    3.6810    1.4600 C.ar    1  UNL1       -0.0494
      5 C           0.7470    2.4140    1.8440 C.ar    1  UNL1        0.0373
      6 C           1.6730    2.3080    3.0050 C.2     1  UNL1        0.2443
      7 O           2.3980    3.2510    3.2990 O.2     1  UNL1       -0.2702
      8 N           1.6270    1.1250    3.7170 N.am    1  UNL1       -0.3090
      9 C           2.3880    0.9530    4.9470 C.3     1  UNL1        0.0178
     10 C           2.6390   -0.5300    5.2000 C.3     1  UNL1       -0.0469
     11 C           1.6550    1.5870    6.1270 C.3     1  UNL1       -0.0469
     12 C           0.3360    1.2890    1.1180 C.ar    1  UNL1       -0.0417
     13 C          -0.5400    1.4130    0.0230 C.ar    1  UNL1       -0.0142
     14 C          -0.9430    0.2000   -0.7020 C.ar    1  UNL1       -0.0158
     15 C          -2.1710   -0.4380   -0.4010 C.ar    1  UNL1       -0.0536
     16 C          -2.5780   -1.5970   -1.0720 C.ar    1  UNL1       -0.0552
     17 C          -1.7410   -2.1150   -2.0440 C.ar    1  UNL1       -0.0112
     18 C          -0.5330   -1.4870   -2.3380 C.ar    1  UNL1        0.0382
     19 C          -0.1090   -0.3440   -1.6930 C.ar    1  UNL1       -0.0325
     20 N           0.1270   -2.1750   -3.3420 N.am    1  UNL1       -0.2845
     21 C          -0.5980   -3.2830   -3.7620 C.2     1  UNL1        0.2278
     22 O          -0.2490   -4.0660   -4.6300 O.2     1  UNL1       -0.2745
     23 C          -1.9030   -3.3290   -2.9260 C.3     1  UNL1        0.0738
     24 C          -3.1430   -3.2800   -3.8360 C.3     1  UNL1       -0.0349
     25 C          -3.9850   -4.4870   -3.4350 C.3     1  UNL1       -0.0518
     26 C          -2.9670   -5.5000   -2.9430 C.3     1  UNL1       -0.0518
     27 C          -1.9900   -4.6490   -2.1430 C.3     1  UNL1       -0.0349
     28 H          -1.4980    2.4760   -2.4280 H       1  UNL1        0.0278
     29 H          -2.8950    2.4240   -1.3120 H       1  UNL1        0.0278
     30 H          -2.1150    3.9590   -1.7020 H       1  UNL1        0.0278
     31 H          -0.9000    4.8190    0.0990 H       1  UNL1        0.0621
     32 H           0.6310    4.5630    2.0060 H       1  UNL1        0.0625
     33 H           0.8340    0.5140    3.5730 H       1  UNL1        0.1493
     34 H           3.3540    1.4570    4.8240 H       1  UNL1        0.0493
     35 H           1.6980   -1.0790    5.3210 H       1  UNL1        0.0247
     36 H           3.2390   -0.6770    6.1040 H       1  UNL1        0.0247
     37 H           3.1770   -0.9800    4.3590 H       1  UNL1        0.0247
     38 H           2.2280    1.4660    7.0530 H       1  UNL1        0.0247
     39 H           0.6690    1.1310    6.2730 H       1  UNL1        0.0247
     40 H           1.5000    2.6590    5.9650 H       1  UNL1        0.0247
     41 H           0.7120    0.3020    1.3800 H       1  UNL1        0.0631
     42 H          -2.8190   -0.0180    0.3670 H       1  UNL1        0.0624
     43 H          -3.5250   -2.0700   -0.8300 H       1  UNL1        0.0621
     44 H           0.8360    0.1250   -1.9450 H       1  UNL1        0.0642
     45 H           1.0210   -1.9280   -3.7390 H       1  UNL1        0.1548
     46 H          -3.7250   -2.3570   -3.7370 H       1  UNL1        0.0278
     47 H          -2.8630   -3.3700   -4.8930 H       1  UNL1        0.0278
     48 H          -4.6680   -4.2140   -2.6220 H       1  UNL1        0.0266
     49 H          -4.5840   -4.8680   -4.2670 H       1  UNL1        0.0266
     50 H          -3.4220   -6.2880   -2.3370 H       1  UNL1        0.0266
     51 H          -2.4560   -5.9710   -3.7920 H       1  UNL1        0.0266
     52 H          -2.3950   -4.4930   -1.1350 H       1  UNL1        0.0278
     53 H          -1.0240   -5.1540   -2.0330 H       1  UNL1        0.0278
@<TRIPOS>BOND
     1     1     2    1
     2     1    28    1
     3     1    29    1
     4     1    30    1
     5     2     3   ar
     6     2    13   ar
     7     3     4   ar
     8     3    31    1
     9     4     5   ar
    10     4    32    1
    11     5     6    1
    12     5    12   ar
    13     6     7    2
    14     6     8   am
    15     8     9    1
    16     8    33    1
    17     9    10    1
    18     9    11    1
    19     9    34    1
    20    10    35    1
    21    10    36    1
    22    10    37    1
    23    11    38    1
    24    11    39    1
    25    11    40    1
    26    12    13   ar
    27    12    41    1
    28    13    14    1
    29    14    15   ar
    30    14    19   ar
    31    15    16   ar
    32    15    42    1
    33    16    17   ar
    34    16    43    1
    35    17    18   ar
    36    17    23    1
    37    18    19   ar
    38    18    20    1
    39    19    44    1
    40    20    21   am
    41    20    45    1
    42    21    22    2
    43    23    21    1
    44    23    24    1
    45    23    27    1
    46    24    25    1
    47    24    46    1
    48    24    47    1
    49    25    26    1
    50    25    48    1
    51    25    49    1
    52    26    27    1
    53    26    50    1
    54    26    51    1
    55    27    52    1
    56    27    53    1
@<TRIPOS>MOLECULE
AD3CC00092753-I00-C00
 47 50 0 0 0
SMALL
GASTEIGER

@<TRIPOS>ATOM
      1 C           0.3130   -0.3330   -6.7820 C.3     1  UNL1        0.0004
      2 N           0.0020    0.1540   -5.4610 N.am    1  UNL1       -0.3144
      3 C           0.0730    1.5040   -5.1800 C.2     1  UNL1        0.2439
      4 O           0.4580    2.3430   -5.9860 O.2     1  UNL1       -0.2702
      5 C          -0.3890    1.9220   -3.8280 C.ar    1  UNL1        0.0373
      6 C          -0.8860    3.2170   -3.6660 C.ar    1  UNL1       -0.0494
      7 C          -1.3290    3.6480   -2.4150 C.ar    1  UNL1       -0.0575
      8 C          -1.2700    2.7960   -1.3010 C.ar    1  UNL1       -0.0427
      9 C          -1.7550    3.3030    0.0320 C.3     1  UNL1       -0.0391
     10 C          -0.7570    1.4880   -1.4510 C.ar    1  UNL1       -0.0142
     11 C          -0.6590    0.5510   -0.3220 C.ar    1  UNL1       -0.0158
     12 C          -1.7810   -0.2210    0.0650 C.ar    1  UNL1       -0.0536
     13 C          -1.7150   -1.1240    1.1320 C.ar    1  UNL1       -0.0552
     14 C          -0.5130   -1.2510    1.8060 C.ar    1  UNL1       -0.0112
     15 C           0.5900   -0.4900    1.4230 C.ar    1  UNL1        0.0382
     16 C           0.5510    0.4060    0.3750 C.ar    1  UNL1       -0.0325
     17 N           1.6700   -0.7780    2.2390 N.am    1  UNL1       -0.2845
     18 C           1.3460   -1.7310    3.1960 C.2     1  UNL1        0.2278
     19 O           2.1100   -2.1700    4.0400 O.2     1  UNL1       -0.2745
     20 C          -0.1390   -2.1220    2.9790 C.3     1  UNL1        0.0738
     21 C          -0.2590   -3.6270    2.6880 C.3     1  UNL1       -0.0349
     22 C          -0.7260   -4.2300    4.0060 C.3     1  UNL1       -0.0518
     23 C          -1.6700   -3.1750    4.5540 C.3     1  UNL1       -0.0518
     24 C          -0.9690   -1.8550    4.2470 C.3     1  UNL1       -0.0349
     25 C          -0.3150    1.0690   -2.7200 C.ar    1  UNL1       -0.0417
     26 H          -0.5270   -0.1120   -7.4440 H       1  UNL1        0.0426
     27 H           1.2160    0.1530   -7.1620 H       1  UNL1        0.0426
     28 H           0.4670   -1.4140   -6.7260 H       1  UNL1        0.0426
     29 H          -0.5610   -0.4370   -4.8650 H       1  UNL1        0.1487
     30 H          -0.9320    3.8950   -4.5170 H       1  UNL1        0.0625
     31 H          -1.7150    4.6610   -2.3160 H       1  UNL1        0.0621
     32 H          -2.6310    2.7340    0.3610 H       1  UNL1        0.0278
     33 H          -0.9630    3.2270    0.7840 H       1  UNL1        0.0278
     34 H          -2.0490    4.3570   -0.0230 H       1  UNL1        0.0278
     35 H          -2.7200   -0.1110   -0.4750 H       1  UNL1        0.0624
     36 H          -2.5870   -1.7050    1.4180 H       1  UNL1        0.0621
     37 H           1.4260    0.9870    0.1010 H       1  UNL1        0.0642
     38 H           2.5880   -0.3630    2.1740 H       1  UNL1        0.1548
     39 H           0.6800   -4.0820    2.3560 H       1  UNL1        0.0278
     40 H          -1.0120   -3.8280    1.9160 H       1  UNL1        0.0278
     41 H           0.1240   -4.3710    4.6840 H       1  UNL1        0.0266
     42 H          -1.2180   -5.1970    3.8680 H       1  UNL1        0.0266
     43 H          -2.6310   -3.2190    4.0280 H       1  UNL1        0.0266
     44 H          -1.8630   -3.3020    5.6240 H       1  UNL1        0.0266
     45 H          -1.7020   -1.0500    4.1310 H       1  UNL1        0.0278
     46 H          -0.3260   -1.5830    5.0930 H       1  UNL1        0.0278
     47 H           0.1130    0.0740   -2.8250 H       1  UNL1        0.0631
@<TRIPOS>BOND
     1     1     2    1
     2     1    26    1
     3     1    27    1
     4     1    28    1
     5     2     3   am
     6     2    29    1
     7     3     4    2
     8     3     5    1
     9     5     6   ar
    10     5    25   ar
    11     6     7   ar
    12     6    30    1
    13     7     8   ar
    14     7    31    1
    15     8     9    1
    16     8    10   ar
    17     9    32    1
    18     9    33    1
    19     9    34    1
    20    10    11    1
    21    10    25   ar
    22    11    12   ar
    23    11    16   ar
    24    12    13   ar
    25    12    35    1
    26    13    14   ar
    27    13    36    1
    28    14    15   ar
    29    14    20    1
    30    15    16   ar
    31    15    17    1
    32    16    37    1
    33    17    18   am
    34    17    38    1
    35    18    19    2
    36    20    18    1
    37    20    21    1
    38    20    24    1
    39    21    22    1
    40    21    39    1
    41    21    40    1
    42    22    23    1
    43    22    41    1
    44    22    42    1
    45    23    24    1
    46    23    43    1
    47    23    44    1
    48    24    45    1
    49    24    46    1
    50    25    47    1
@<TRIPOS>MOLECULE
AD3CC00092766-I00-C00
 47 50 0 0 0
SMALL
GASTEIGER

@<TRIPOS>ATOM
      1 C           0.4340   -1.5870    3.9600 C.3     1  UNL1       -0.0391
      2 C           1.0800   -0.3780    3.3340 C.ar    1  UNL1       -0.0427
      3 C           2.0990    0.2880    4.0340 C.ar    1  UNL1       -0.0575
      4 C           2.7200    1.4120    3.4900 C.ar    1  UNL1       -0.0494
      5 C           2.3410    1.8840    2.2320 C.ar    1  UNL1        0.0373
      6 C           3.0290    3.0870    1.6900 C.2     1  UNL1        0.2443
      7 O           3.4950    3.9230    2.4570 O.2     1  UNL1       -0.2702
      8 N           3.1270    3.1630    0.3120 N.am    1  UNL1       -0.3085
      9 C           3.7970    4.2450   -0.3380 C.3     1  UNL1        0.0235
     10 C           3.6790    4.4360   -1.8250 C.3     1  UNL1       -0.0328
     11 C           3.0120    5.4010   -0.8900 C.3     1  UNL1       -0.0328
     12 C           1.3160    1.2360    1.5320 C.ar    1  UNL1       -0.0417
     13 C           0.6790    0.1000    2.0660 C.ar    1  UNL1       -0.0142
     14 C          -0.3900   -0.5430    1.2890 C.ar    1  UNL1       -0.0158
     15 C          -0.1020   -1.6600    0.4680 C.ar    1  UNL1       -0.0536
     16 C          -1.0990   -2.2900   -0.2880 C.ar    1  UNL1       -0.0553
     17 C          -2.3850   -1.7880   -0.2150 C.ar    1  UNL1       -0.0117
     18 C          -2.6660   -0.6870    0.5920 C.ar    1  UNL1        0.0382
     19 C          -1.7030   -0.0490    1.3460 C.ar    1  UNL1       -0.0325
     20 N          -4.0110   -0.3670    0.5060 N.am    1  UNL1       -0.2845
     21 C          -4.6860   -1.2270   -0.3510 C.2     1  UNL1        0.2272
     22 O          -5.8770   -1.1740   -0.6110 O.2     1  UNL1       -0.2745
     23 C          -3.6550   -2.2450   -0.9000 C.3     1  UNL1        0.0682
     24 C          -4.0510   -3.6580   -0.4790 C.3     1  UNL1       -0.0473
     25 C          -3.5590   -2.1130   -2.4190 C.3     1  UNL1       -0.0473
     26 H           0.8250   -1.7740    4.9660 H       1  UNL1        0.0278
     27 H          -0.6470   -1.4390    4.0550 H       1  UNL1        0.0278
     28 H           0.6320   -2.4790    3.3580 H       1  UNL1        0.0278
     29 H           2.4140   -0.0630    5.0150 H       1  UNL1        0.0621
     30 H           3.5030    1.9200    4.0520 H       1  UNL1        0.0625
     31 H           2.8850    2.3550   -0.2450 H       1  UNL1        0.1493
     32 H           4.7610    4.4790    0.1090 H       1  UNL1        0.0498
     33 H           4.5570    4.7760   -2.3610 H       1  UNL1        0.0284
     34 H           3.0450    3.7660   -2.3920 H       1  UNL1        0.0284
     35 H           1.9320    5.3740   -0.8060 H       1  UNL1        0.0284
     36 H           3.4390    6.3920   -0.7820 H       1  UNL1        0.0284
     37 H           0.9780    1.6230    0.5730 H       1  UNL1        0.0631
     38 H           0.9160   -2.0450    0.4220 H       1  UNL1        0.0624
     39 H          -0.8600   -3.1470   -0.9100 H       1  UNL1        0.0621
     40 H          -1.9510    0.8050    1.9670 H       1  UNL1        0.0642
     41 H          -4.4710    0.3880    0.9920 H       1  UNL1        0.1548
     42 H          -4.1560   -3.7380    0.6100 H       1  UNL1        0.0243
     43 H          -5.0130   -3.9450   -0.9190 H       1  UNL1        0.0243
     44 H          -3.3030   -4.3950   -0.7940 H       1  UNL1        0.0243
     45 H          -4.5120   -2.3690   -2.8970 H       1  UNL1        0.0243
     46 H          -2.7870   -2.7720   -2.8310 H       1  UNL1        0.0243
     47 H          -3.3140   -1.0870   -2.7180 H       1  UNL1        0.0243
@<TRIPOS>BOND
     1     1     2    1
     2     1    26    1
     3     1    27    1
     4     1    28    1
     5     2     3   ar
     6     2    13   ar
     7     3     4   ar
     8     3    29    1
     9     4     5   ar
    10     4    30    1
    11     5     6    1
    12     5    12   ar
    13     6     7    2
    14     6     8   am
    15     8     9    1
    16     8    31    1
    17     9    10    1
    18     9    11    1
    19     9    32    1
    20    10    11    1
    21    10    33    1
    22    10    34    1
    23    11    35    1
    24    11    36    1
    25    12    13   ar
    26    12    37    1
    27    13    14    1
    28    14    15   ar
    29    14    19   ar
    30    15    16   ar
    31    15    38    1
    32    16    17   ar
    33    16    39    1
    34    17    18   ar
    35    17    23    1
    36    18    19   ar
    37    18    20    1
    38    19    40    1
    39    20    21   am
    40    20    41    1
    41    21    22    2
    42    21    23    1
    43    23    24    1
    44    23    25    1
    45    24    42    1
    46    24    43    1
    47    24    44    1
    48    25    45    1
    49    25    46    1
    50    25    47    1
@<TRIPOS>MOLECULE
AD3CC00092767-I00-C00
 50 53 0 0 0
SMALL
GASTEIGER

@<TRIPOS>ATOM
      1 C           3.6260   -0.9010    0.2040 C.3     1  UNL1       -0.0391
      2 C           2.5040   -0.6870    1.1860 C.ar    1  UNL1       -0.0427
      3 C           2.7760   -0.7810    2.5610 C.ar    1  UNL1       -0.0575
      4 C           1.7650   -0.5870    3.5030 C.ar    1  UNL1       -0.0494
      5 C           0.4620   -0.3070    3.0870 C.ar    1  UNL1        0.0373
      6 C          -0.5870   -0.1060    4.1250 C.2     1  UNL1        0.2441
      7 O          -0.2770    0.2600    5.2520 O.2     1  UNL1       -0.2702
      8 N          -1.8830   -0.3900    3.7470 N.am    1  UNL1       -0.3111
      9 C          -2.9440   -0.3680    4.7250 C.3     1  UNL1        0.0147
     10 C          -4.2590   -0.4380    4.0210 C.3     1  UNL1       -0.0254
     11 C          -4.7880   -1.7520    3.5020 C.3     1  UNL1       -0.0485
     12 C          -5.4450   -1.0920    4.6830 C.3     1  UNL1       -0.0485
     13 C           0.1830   -0.1980    1.7190 C.ar    1  UNL1       -0.0417
     14 C           1.1910   -0.3910    0.7550 C.ar    1  UNL1       -0.0142
     15 C           0.8430   -0.2680   -0.6670 C.ar    1  UNL1       -0.0158
     16 C           0.5430   -1.4220   -1.4320 C.ar    1  UNL1       -0.0536
     17 C           0.2030   -1.3360   -2.7870 C.ar    1  UNL1       -0.0553
     18 C           0.1640   -0.0810   -3.3680 C.ar    1  UNL1       -0.0117
     19 C           0.4570    1.0540   -2.6140 C.ar    1  UNL1        0.0382
     20 C           0.7940    0.9950   -1.2780 C.ar    1  UNL1       -0.0325
     21 N           0.3540    2.1870   -3.4040 N.am    1  UNL1       -0.2845
     22 C          -0.0070    1.8690   -4.7080 C.2     1  UNL1        0.2272
     23 O          -0.1680    2.6730   -5.6110 O.2     1  UNL1       -0.2745
     24 C          -0.1630    0.3300   -4.7870 C.3     1  UNL1        0.0682
     25 C          -1.6000   -0.0240   -5.1650 C.3     1  UNL1       -0.0473
     26 C           0.8420   -0.2380   -5.7890 C.3     1  UNL1       -0.0473
     27 H           3.7380   -0.0280   -0.4470 H       1  UNL1        0.0278
     28 H           4.5830   -1.0490    0.7150 H       1  UNL1        0.0278
     29 H           3.4360   -1.7910   -0.4030 H       1  UNL1        0.0278
     30 H           3.7830   -1.0020    2.9100 H       1  UNL1        0.0621
     31 H           1.9970   -0.6570    4.5640 H       1  UNL1        0.0625
     32 H          -2.0290   -0.9570    2.9240 H       1  UNL1        0.1490
     33 H          -2.7930   -1.2170    5.4020 H       1  UNL1        0.0465
     34 H          -2.8740    0.5520    5.3150 H       1  UNL1        0.0465
     35 H          -4.4490    0.4550    3.4350 H       1  UNL1        0.0316
     36 H          -4.2160   -2.6550    3.6840 H       1  UNL1        0.0269
     37 H          -5.3220   -1.7470    2.5580 H       1  UNL1        0.0269
     38 H          -5.3130   -1.5480    5.6580 H       1  UNL1        0.0269
     39 H          -6.4200   -0.6410    4.5360 H       1  UNL1        0.0269
     40 H          -0.8190    0.0640    1.3850 H       1  UNL1        0.0631
     41 H           0.5790   -2.4030   -0.9590 H       1  UNL1        0.0624
     42 H          -0.0210   -2.2320   -3.3570 H       1  UNL1        0.0621
     43 H           1.0200    1.8950   -0.7160 H       1  UNL1        0.0642
     44 H           0.5160    3.1350   -3.1010 H       1  UNL1        0.1548
     45 H          -2.3190    0.4180   -4.4660 H       1  UNL1        0.0243
     46 H          -1.7590   -1.1080   -5.1630 H       1  UNL1        0.0243
     47 H          -1.8480    0.3510   -6.1640 H       1  UNL1        0.0243
     48 H           0.8040   -1.3330   -5.8180 H       1  UNL1        0.0243
     49 H           0.6410    0.1330   -6.8000 H       1  UNL1        0.0243
     50 H           1.8690    0.0520   -5.5360 H       1  UNL1        0.0243
@<TRIPOS>BOND
     1     1     2    1
     2     1    27    1
     3     1    28    1
     4     1    29    1
     5     2     3   ar
     6     2    14   ar
     7     3     4   ar
     8     3    30    1
     9     4     5   ar
    10     4    31    1
    11     5     6    1
    12     5    13   ar
    13     6     7    2
    14     6     8   am
    15     8     9    1
    16     8    32    1
    17     9    10    1
    18     9    33    1
    19     9    34    1
    20    10    11    1
    21    10    12    1
    22    10    35    1
    23    11    12    1
    24    11    36    1
    25    11    37    1
    26    12    38    1
    27    12    39    1
    28    13    14   ar
    29    13    40    1
    30    14    15    1
    31    15    16   ar
    32    15    20   ar
    33    16    17   ar
    34    16    41    1
    35    17    18   ar
    36    17    42    1
    37    18    19   ar
    38    18    24    1
    39    19    20   ar
    40    19    21    1
    41    20    43    1
    42    21    22   am
    43    21    44    1
    44    22    23    2
    45    22    24    1
    46    24    25    1
    47    24    26    1
    48    25    45    1
    49    25    46    1
    50    25    47    1
    51    26    48    1
    52    26    49    1
    53    26    50    1
@<TRIPOS>MOLECULE
AD3CC00099345-I00-C00
 67 72 0 0 0
SMALL
GASTEIGER

@<TRIPOS>ATOM
      1 O          -2.5450    4.5290    2.5610 O.2     1  UNL1       -0.2519
      2 C          -2.1970    4.0590    1.4790 C.2     1  UNL1        0.3113
      3 N          -2.0200    4.9070    0.4250 N.am    1  UNL1       -0.2945
      4 C          -1.1540    4.5820   -0.6710 C.3     1  UNL1        0.0407
      5 C          -1.2190    3.1310   -1.0440 C.ar    1  UNL1       -0.0008
      6 C          -0.8170    2.6740   -2.3170 C.ar    1  UNL1       -0.0098
      7 C          -0.3930    3.5920   -3.3880 C.ar    1  UNL1        0.0010
      8 C          -1.3540    4.0600   -4.3050 C.ar    1  UNL1       -0.0499
      9 C          -0.9940    4.9290   -5.3370 C.ar    1  UNL1       -0.0258
     10 C           0.3290    5.3340   -5.4600 C.ar    1  UNL1        0.1248
     11 F           0.6720    6.1670   -6.4500 F       1  UNL1       -0.2054
     12 C           1.3010    4.8890   -4.5750 C.ar    1  UNL1       -0.0075
     13 C           0.9420    4.0190   -3.5430 C.ar    1  UNL1        0.0514
     14 CL          2.1920    3.4950   -2.4670 Cl      1  UNL1       -0.0828
     15 C          -0.8130    1.2910   -2.5730 C.ar    1  UNL1       -0.0501
     16 C          -1.1730    0.3480   -1.5990 C.ar    1  UNL1       -0.0418
     17 C          -1.1070   -1.1370   -1.9520 C.3     1  UNL1       -0.0135
     18 C           0.3260   -1.5860   -2.2940 C.3     1  UNL1       -0.0333
     19 C           1.1710   -1.8160   -1.0420 C.3     1  UNL1       -0.0006
     20 N           0.5670   -2.8510   -0.1860 N.3     1  UNL1       -0.3020
     21 C           1.4560   -3.1230    0.9630 C.3     1  UNL1        0.0017
     22 C           1.0590   -4.3940    1.7100 C.3     1  UNL1       -0.0282
     23 C           1.1790   -5.7390    0.9420 C.3     1  UNL1       -0.0490
     24 C           1.6530   -6.3690    2.2670 C.3     1  UNL1       -0.0525
     25 C           2.1280   -4.9620    2.6830 C.3     1  UNL1       -0.0490
     26 C          -0.7740   -2.4360    0.2490 C.3     1  UNL1       -0.0006
     27 C          -1.6990   -2.1330   -0.9380 C.3     1  UNL1       -0.0333
     28 C          -1.5900    0.8340   -0.3550 C.ar    1  UNL1       -0.0361
     29 C          -1.5950    2.2100   -0.0530 C.ar    1  UNL1        0.0484
     30 N          -1.9800    2.7100    1.2290 N.am    1  UNL1       -0.2213
     31 C          -2.1850    1.7890    2.2980 C.ar    1  UNL1        0.0793
     32 C          -1.0890    1.2120    2.9690 C.ar    1  UNL1        0.0641
     33 CL          0.5490    1.5740    2.5400 Cl      1  UNL1       -0.0816
     34 C          -1.2930    0.3260    4.0320 C.ar    1  UNL1       -0.0415
     35 C          -2.5870    0.0110    4.4440 C.ar    1  UNL1       -0.0589
     36 C          -3.6800    0.5800    3.7940 C.ar    1  UNL1       -0.0415
     37 C          -3.4850    1.4660    2.7290 C.ar    1  UNL1        0.0641
     38 CL         -4.8960    2.0690    1.9270 Cl      1  UNL1       -0.0816
     39 H          -2.1090    5.8780    0.6960 H       1  UNL1        0.1506
     40 H          -0.1310    4.8400   -0.3750 H       1  UNL1        0.0513
     41 H          -1.4600    5.2290   -1.4980 H       1  UNL1        0.0513
     42 H          -2.3930    3.7450   -4.2150 H       1  UNL1        0.0625
     43 H          -1.7360    5.2890   -6.0430 H       1  UNL1        0.0646
     44 H           2.3260    5.2220   -4.7000 H       1  UNL1        0.0661
     45 H          -0.5080    0.9440   -3.5610 H       1  UNL1        0.0627
     46 H          -1.7140   -1.2360   -2.8640 H       1  UNL1        0.0350
     47 H           0.8360   -0.8690   -2.9470 H       1  UNL1        0.0283
     48 H           0.2740   -2.5260   -2.8610 H       1  UNL1        0.0283
     49 H           1.3060   -0.8760   -0.4920 H       1  UNL1        0.0427
     50 H           2.1650   -2.1450   -1.3700 H       1  UNL1        0.0427
     51 H           2.4820   -3.2500    0.5940 H       1  UNL1        0.0429
     52 H           1.4740   -2.2700    1.6540 H       1  UNL1        0.0429
     53 H           0.0900   -4.2910    2.2190 H       1  UNL1        0.0313
     54 H           0.2460   -6.1380    0.5360 H       1  UNL1        0.0268
     55 H           1.9430   -5.7480    0.1550 H       1  UNL1        0.0268
     56 H           0.8380   -6.7610    2.8860 H       1  UNL1        0.0265
     57 H           2.4340   -7.1290    2.1810 H       1  UNL1        0.0265
     58 H           1.9910   -4.7090    3.7380 H       1  UNL1        0.0268
     59 H           3.1660   -4.7500    2.4000 H       1  UNL1        0.0268
     60 H          -0.7050   -1.5730    0.9190 H       1  UNL1        0.0427
     61 H          -1.2500   -3.2400    0.8210 H       1  UNL1        0.0427
     62 H          -2.6780   -1.7960   -0.5760 H       1  UNL1        0.0283
     63 H          -1.8870   -3.0800   -1.4640 H       1  UNL1        0.0283
     64 H          -1.9300    0.1320    0.3960 H       1  UNL1        0.0639
     65 H          -0.4440   -0.1140    4.5500 H       1  UNL1        0.0633
     66 H          -2.7430   -0.6740    5.2750 H       1  UNL1        0.0618
     67 H          -4.6870    0.3290    4.1200 H       1  UNL1        0.0633
@<TRIPOS>BOND
     1     1     2    2
     2     2     3   am
     3     2    30   am
     4     3     4    1
     5     3    39    1
     6     4     5    1
     7     4    40    1
     8     4    41    1
     9     5     6   ar
    10     5    29   ar
    11     6     7    1
    12     6    15   ar
    13     7     8   ar
    14     7    13   ar
    15     8     9   ar
    16     8    42    1
    17     9    10   ar
    18     9    43    1
    19    10    11    1
    20    10    12   ar
    21    12    13   ar
    22    12    44    1
    23    13    14    1
    24    15    16   ar
    25    15    45    1
    26    16    17    1
    27    16    28   ar
    28    17    18    1
    29    17    27    1
    30    17    46    1
    31    18    19    1
    32    18    47    1
    33    18    48    1
    34    19    20    1
    35    19    49    1
    36    19    50    1
    37    20    21    1
    38    20    26    1
    39    21    22    1
    40    21    51    1
    41    21    52    1
    42    22    23    1
    43    22    25    1
    44    22    53    1
    45    23    24    1
    46    23    54    1
    47    23    55    1
    48    24    25    1
    49    24    56    1
    50    24    57    1
    51    25    58    1
    52    25    59    1
    53    26    27    1
    54    26    60    1
    55    26    61    1
    56    27    62    1
    57    27    63    1
    58    28    29   ar
    59    28    64    1
    60    29    30    1
    61    30    31    1
    62    31    32   ar
    63    31    37   ar
    64    32    33    1
    65    32    34   ar
    66    34    35   ar
    67    34    65    1
    68    35    36   ar
    69    35    66    1
    70    36    37   ar
    71    36    67    1
    72    37    38    1
@<TRIPOS>MOLECULE
AD3CC00099359-I00-C00
 45 48 0 0 0
SMALL
GASTEIGER

@<TRIPOS>ATOM
      1 C          -4.1360    1.5750   -3.4420 C.3     1  UNL1        0.0820
      2 O          -3.1250    0.6710   -2.9940 O.3     1  UNL1       -0.4644
      3 C          -2.4450    1.1010   -1.9030 C.2     1  UNL1        0.3390
      4 O          -2.6330    2.1530   -1.3130 O.2     1  UNL1       -0.2450
      5 C          -1.4110    0.1090   -1.5000 C.ar    1  UNL1        0.0613
      6 C          -1.2350   -1.1040   -2.1700 C.ar    1  UNL1       -0.0396
      7 C          -0.2510   -2.0180   -1.7590 C.ar    1  UNL1       -0.0107
      8 C          -0.1270   -3.2930   -2.4760 C.ar    1  UNL1       -0.0173
      9 C          -0.7690   -4.4480   -1.9970 C.ar    1  UNL1       -0.0513
     10 C          -0.6500   -5.6610   -2.6790 C.ar    1  UNL1       -0.0259
     11 C           0.1080   -5.7220   -3.8410 C.ar    1  UNL1        0.1234
     12 F           0.2220   -6.8850   -4.4940 F       1  UNL1       -0.2055
     13 C           0.7490   -4.5930   -4.3370 C.ar    1  UNL1       -0.0259
     14 C           0.6310   -3.3800   -3.6560 C.ar    1  UNL1       -0.0513
     15 C           0.5790   -1.6870   -0.6610 C.ar    1  UNL1       -0.0008
     16 C           0.3990   -0.4740    0.0300 C.ar    1  UNL1        0.0489
     17 C          -0.5980    0.4150   -0.4020 C.ar    1  UNL1       -0.0255
     18 N           1.2500   -0.1940    1.1420 N.am    1  UNL1       -0.2212
     19 C           0.9820    0.9520    1.9430 C.ar    1  UNL1        0.0793
     20 C          -0.0130    0.9110    2.9380 C.ar    1  UNL1        0.0641
     21 CL         -0.9650   -0.5070    3.2230 Cl      1  UNL1       -0.0816
     22 C          -0.2540    2.0260    3.7470 C.ar    1  UNL1       -0.0415
     23 C           0.4970    3.1880    3.5820 C.ar    1  UNL1       -0.0589
     24 C           1.4930    3.2390    2.6060 C.ar    1  UNL1       -0.0415
     25 C           1.7390    2.1290    1.7930 C.ar    1  UNL1        0.0641
     26 CL          2.9510    2.2890    0.5670 Cl      1  UNL1       -0.0816
     27 C           2.3720   -0.9530    1.4460 C.2     1  UNL1        0.3113
     28 O           3.1430   -0.7280    2.3780 O.2     1  UNL1       -0.2519
     29 N           2.6280   -2.0130    0.6280 N.am    1  UNL1       -0.2945
     30 C           1.6010   -2.6550   -0.1400 C.3     1  UNL1        0.0407
     31 H          -4.8940    1.7180   -2.6650 H       1  UNL1        0.0661
     32 H          -3.6920    2.5320   -3.7340 H       1  UNL1        0.0661
     33 H          -4.6190    1.1350   -4.3190 H       1  UNL1        0.0661
     34 H          -1.8700   -1.3590   -3.0180 H       1  UNL1        0.0632
     35 H          -1.3700   -4.4060   -1.0900 H       1  UNL1        0.0624
     36 H          -1.1450   -6.5550   -2.3130 H       1  UNL1        0.0646
     37 H           1.3350   -4.6640   -5.2470 H       1  UNL1        0.0646
     38 H           1.1360   -2.4990   -4.0480 H       1  UNL1        0.0624
     39 H          -0.7530    1.3690    0.0960 H       1  UNL1        0.0644
     40 H          -1.0230    1.9910    4.5150 H       1  UNL1        0.0633
     41 H           0.3100    4.0530    4.2140 H       1  UNL1        0.0618
     42 H           2.0740    4.1500    2.4820 H       1  UNL1        0.0633
     43 H           3.4100   -2.5690    0.9480 H       1  UNL1        0.1506
     44 H           2.1160   -3.1790   -0.9510 H       1  UNL1        0.0513
     45 H           1.1130   -3.3910    0.5090 H       1  UNL1        0.0513
@<TRIPOS>BOND
     1     1     2    1
     2     1    31    1
     3     1    32    1
     4     1    33    1
     5     2     3    1
     6     3     4    2
     7     3     5    1
     8     5     6   ar
     9     5    17   ar
    10     6     7   ar
    11     6    34    1
    12     7     8    1
    13     7    15   ar
    14     8     9   ar
    15     8    14   ar
    16     9    10   ar
    17     9    35    1
    18    10    11   ar
    19    10    36    1
    20    11    12    1
    21    11    13   ar
    22    13    14   ar
    23    13    37    1
    24    14    38    1
    25    15    16   ar
    26    15    30    1
    27    16    17   ar
    28    16    18    1
    29    17    39    1
    30    18    19    1
    31    18    27   am
    32    19    20   ar
    33    19    25   ar
    34    20    21    1
    35    20    22   ar
    36    22    23   ar
    37    22    40    1
    38    23    24   ar
    39    23    41    1
    40    24    25   ar
    41    24    42    1
    42    25    26    1
    43    27    28    2
    44    27    29   am
    45    29    30    1
    46    29    43    1
    47    30    44    1
    48    30    45    1
@<TRIPOS>MOLECULE
AD3CC00099368-I00-C00
 56 60 0 0 0
SMALL
GASTEIGER

@<TRIPOS>ATOM
      1 O          -3.7610    0.3670    3.2740 O.2     1  UNL1       -0.2519
      2 C          -2.6840    0.5550    2.7090 C.2     1  UNL1        0.3113
      3 N          -1.8000    1.4330    3.2650 N.am    1  UNL1       -0.2945
      4 C          -0.3890    1.3490    3.0150 C.3     1  UNL1        0.0407
      5 C          -0.0770    0.9620    1.6000 C.ar    1  UNL1       -0.0008
      6 C           1.1870    1.2320    1.0230 C.ar    1  UNL1       -0.0097
      7 C           2.2360    1.9750    1.7400 C.ar    1  UNL1        0.0008
      8 C           2.3140    3.3710    1.5800 C.ar    1  UNL1       -0.0526
      9 C           3.2920    4.1190    2.2390 C.ar    1  UNL1       -0.0611
     10 C           4.2130    3.4840    3.0680 C.ar    1  UNL1       -0.0603
     11 C           4.1580    2.1020    3.2380 C.ar    1  UNL1       -0.0428
     12 C           3.1790    1.3510    2.5790 C.ar    1  UNL1        0.0487
     13 CL          3.1710   -0.3600    2.8380 Cl      1  UNL1       -0.0829
     14 C           1.4570    0.7670   -0.2750 C.ar    1  UNL1       -0.0491
     15 C           0.5100    0.0320   -0.9940 C.ar    1  UNL1       -0.0310
     16 C           0.8190   -0.4760   -2.3880 C.3     1  UNL1        0.0242
     17 N           0.5500   -1.9130   -2.5490 N.3     1  UNL1       -0.2958
     18 C           0.6460   -2.2960   -3.9730 C.3     1  UNL1        0.0118
     19 C           0.4180   -3.8090   -4.1840 C.3     1  UNL1        0.0087
     20 N           1.3450   -4.6390   -3.4020 N.3     1  UNL1       -0.3136
     21 C           1.2700   -4.2490   -1.9840 C.3     1  UNL1        0.0087
     22 C           1.4970   -2.7370   -1.7640 C.3     1  UNL1        0.0118
     23 C          -0.7370   -0.2210   -0.4060 C.ar    1  UNL1       -0.0351
     24 C          -1.0390    0.2200    0.8910 C.ar    1  UNL1        0.0484
     25 N          -2.2900   -0.0500    1.5230 N.am    1  UNL1       -0.2213
     26 C          -3.2000   -0.9460    0.8910 C.ar    1  UNL1        0.0793
     27 C          -4.3370   -0.4600    0.2190 C.ar    1  UNL1        0.0641
     28 CL         -4.6370    1.2330    0.0220 Cl      1  UNL1       -0.0816
     29 C          -5.2450   -1.3470   -0.3720 C.ar    1  UNL1       -0.0415
     30 C          -5.0340   -2.7230   -0.2970 C.ar    1  UNL1       -0.0589
     31 C          -3.9150   -3.2170    0.3720 C.ar    1  UNL1       -0.0415
     32 C          -3.0040   -2.3380    0.9670 C.ar    1  UNL1        0.0641
     33 CL         -1.6620   -3.0340    1.8110 Cl      1  UNL1       -0.0816
     34 H          -2.1090    1.7690    4.1670 H       1  UNL1        0.1506
     35 H           0.0260    0.6030    3.7010 H       1  UNL1        0.0513
     36 H           0.0190    2.3320    3.2680 H       1  UNL1        0.0513
     37 H           1.6020    3.8850    0.9350 H       1  UNL1        0.0624
     38 H           3.3340    5.1970    2.1030 H       1  UNL1        0.0618
     39 H           4.9760    4.0660    3.5810 H       1  UNL1        0.0618
     40 H           4.8820    1.6120    3.8850 H       1  UNL1        0.0632
     41 H           2.4310    0.9670   -0.7210 H       1  UNL1        0.0627
     42 H           1.8580   -0.2450   -2.6580 H       1  UNL1        0.0476
     43 H           0.1830    0.1000   -3.0740 H       1  UNL1        0.0476
     44 H           1.6280   -2.0200   -4.3810 H       1  UNL1        0.0439
     45 H          -0.1130   -1.7540   -4.5490 H       1  UNL1        0.0439
     46 H           0.5490   -4.0440   -5.2460 H       1  UNL1        0.0437
     47 H          -0.6170   -4.0660   -3.9230 H       1  UNL1        0.0437
     48 H           1.0760   -5.6180   -3.4910 H       1  UNL1        0.1220
     49 H           0.2930   -4.5380   -1.5750 H       1  UNL1        0.0437
     50 H           2.0290   -4.8090   -1.4270 H       1  UNL1        0.0437
     51 H           1.3770   -2.5380   -0.6930 H       1  UNL1        0.0439
     52 H           2.5330   -2.4880   -2.0300 H       1  UNL1        0.0439
     53 H          -1.4600   -0.7830   -0.9930 H       1  UNL1        0.0639
     54 H          -6.1180   -0.9660   -0.8970 H       1  UNL1        0.0633
     55 H          -5.7430   -3.4080   -0.7550 H       1  UNL1        0.0618
     56 H          -3.7610   -4.2920    0.4350 H       1  UNL1        0.0633
@<TRIPOS>BOND
     1     1     2    2
     2     2     3   am
     3     2    25   am
     4     3     4    1
     5     3    34    1
     6     4     5    1
     7     4    35    1
     8     4    36    1
     9     5     6   ar
    10     5    24   ar
    11     6     7    1
    12     6    14   ar
    13     7     8   ar
    14     7    12   ar
    15     8     9   ar
    16     8    37    1
    17     9    10   ar
    18     9    38    1
    19    10    11   ar
    20    10    39    1
    21    11    12   ar
    22    11    40    1
    23    12    13    1
    24    14    15   ar
    25    14    41    1
    26    15    16    1
    27    15    23   ar
    28    16    17    1
    29    16    42    1
    30    16    43    1
    31    17    18    1
    32    17    22    1
    33    18    19    1
    34    18    44    1
    35    18    45    1
    36    19    20    1
    37    19    46    1
    38    19    47    1
    39    20    21    1
    40    20    48    1
    41    21    22    1
    42    21    49    1
    43    21    50    1
    44    22    51    1
    45    22    52    1
    46    23    24   ar
    47    23    53    1
    48    24    25    1
    49    25    26    1
    50    26    27   ar
    51    26    32   ar
    52    27    28    1
    53    27    29   ar
    54    29    30   ar
    55    29    54    1
    56    30    31   ar
    57    30    55    1
    58    31    32   ar
    59    31    56    1
    60    32    33    1
@<TRIPOS>MOLECULE
AD3CC00102358-I00-C00
 42 45 0 0 0
SMALL
GASTEIGER

@<TRIPOS>ATOM
      1 C          -1.8270   -4.0020    2.2280 C.3     1  UNL1       -0.0379
      2 C          -2.3540   -4.0540    0.8200 C.ar    1  UNL1       -0.0272
      3 C          -3.4770   -4.8540    0.5480 C.ar    1  UNL1       -0.0570
      4 C          -3.9950   -4.9480   -0.7440 C.ar    1  UNL1       -0.0600
      5 C          -3.3900   -4.2550   -1.7890 C.ar    1  UNL1       -0.0416
      6 C          -2.2650   -3.4650   -1.5450 C.ar    1  UNL1        0.0630
      7 CL         -1.5390   -2.6690   -2.9010 Cl      1  UNL1       -0.0816
      8 C          -1.7400   -3.3520   -0.2410 C.ar    1  UNL1        0.0640
      9 N          -0.5830   -2.5580    0.0010 N.am    1  UNL1       -0.2210
     10 C           0.6380   -3.1950    0.2110 C.2     1  UNL1        0.3113
     11 O           0.8120   -4.4130    0.2140 O.2     1  UNL1       -0.2519
     12 N           1.7120   -2.3860    0.4610 N.am    1  UNL1       -0.2930
     13 C           1.7520   -1.0160    0.0180 C.3     1  UNL1        0.0573
     14 C           0.4150   -0.3440    0.1130 C.ar    1  UNL1        0.0813
     15 N           0.3980    1.0140    0.1700 N.ar    1  UNL1       -0.2416
     16 C          -0.8060    1.6250    0.1680 C.ar    1  UNL1        0.1020
     17 S          -0.8580    3.4070    0.2570 S.3     1  UNL1       -0.0699
     18 C           0.6980    3.8610   -0.4840 C.ar    1  UNL1        0.0143
     19 C           0.8850    3.7620   -1.8690 C.ar    1  UNL1       -0.0452
     20 C           2.1030    4.1350   -2.4410 C.ar    1  UNL1       -0.0254
     21 C           3.1250    4.6110   -1.6280 C.ar    1  UNL1        0.1235
     22 F           4.2930    4.9680   -2.1780 F       1  UNL1       -0.2055
     23 C           2.9530    4.7240   -0.2540 C.ar    1  UNL1       -0.0254
     24 C           1.7350    4.3510    0.3200 C.ar    1  UNL1       -0.0452
     25 C          -1.9990    0.9170    0.1160 C.ar    1  UNL1       -0.0277
     26 C          -1.9590   -0.4770    0.0530 C.ar    1  UNL1       -0.0356
     27 C          -0.7280   -1.1400    0.0470 C.ar    1  UNL1        0.0657
     28 H          -0.9670   -4.6690    2.3360 H       1  UNL1        0.0278
     29 H          -2.5920   -4.3150    2.9470 H       1  UNL1        0.0278
     30 H          -1.5360   -2.9830    2.5040 H       1  UNL1        0.0278
     31 H          -3.9550   -5.4170    1.3490 H       1  UNL1        0.0621
     32 H          -4.8630   -5.5740   -0.9360 H       1  UNL1        0.0618
     33 H          -3.7910   -4.3470   -2.7960 H       1  UNL1        0.0633
     34 H           2.5820   -2.8980    0.5150 H       1  UNL1        0.1507
     35 H           2.4930   -0.4930    0.6290 H       1  UNL1        0.0528
     36 H           2.0860   -1.0120   -1.0260 H       1  UNL1        0.0528
     37 H           0.0890    3.3900   -2.5080 H       1  UNL1        0.0629
     38 H           2.2590    4.0570   -3.5120 H       1  UNL1        0.0646
     39 H           3.7640    5.0980    0.3620 H       1  UNL1        0.0646
     40 H           1.6040    4.4370    1.3960 H       1  UNL1        0.0629
     41 H          -2.9550    1.4320    0.1250 H       1  UNL1        0.0645
     42 H          -2.9000   -1.0170    0.0240 H       1  UNL1        0.0638
@<TRIPOS>BOND
     1     1     2    1
     2     1    28    1
     3     1    29    1
     4     1    30    1
     5     2     3   ar
     6     2     8   ar
     7     3     4   ar
     8     3    31    1
     9     4     5   ar
    10     4    32    1
    11     5     6   ar
    12     5    33    1
    13     6     7    1
    14     6     8   ar
    15     8     9    1
    16     9    10   am
    17     9    27    1
    18    10    11    2
    19    10    12   am
    20    12    13    1
    21    12    34    1
    22    13    14    1
    23    13    35    1
    24    13    36    1
    25    14    15   ar
    26    14    27   ar
    27    15    16   ar
    28    16    17    1
    29    16    25   ar
    30    17    18    1
    31    18    19   ar
    32    18    24   ar
    33    19    20   ar
    34    19    37    1
    35    20    21   ar
    36    20    38    1
    37    21    22    1
    38    21    23   ar
    39    23    24   ar
    40    23    39    1
    41    24    40    1
    42    25    26   ar
    43    25    41    1
    44    26    27   ar
    45    26    42    1
@<TRIPOS>MOLECULE
AD3CC00104086-I00-C01
 46 49 0 0 0
SMALL
GASTEIGER

@<TRIPOS>ATOM
      1 C          -0.6350   -3.4220   -3.8530 C.3     1  UNL1       -0.0307
      2 C           0.5230   -2.4410   -3.8290 C.3     1  UNL1        0.0868
      3 O           0.3830   -1.6300   -2.6660 O.3     1  UNL1       -0.4916
      4 C           1.2930   -0.6230   -2.4680 C.ar    1  UNL1        0.1282
      5 C           2.4110   -0.4030   -3.2820 C.ar    1  UNL1       -0.0193
      6 C           3.3040    0.6360   -3.0010 C.ar    1  UNL1       -0.0583
      7 C           3.0890    1.4670   -1.9050 C.ar    1  UNL1       -0.0610
      8 C           1.9800    1.2600   -1.0870 C.ar    1  UNL1       -0.0505
      9 C           1.0790    0.2160   -1.3540 C.ar    1  UNL1        0.0258
     10 C          -0.0740    0.0410   -0.4770 C.ar    1  UNL1        0.0115
     11 C          -1.4520    0.1050   -0.8260 C.ar    1  UNL1       -0.0280
     12 C          -2.2070   -0.1080    0.3130 C.ar    1  UNL1        0.0475
     13 C          -3.6570   -0.1420    0.5030 C.ar    1  UNL1       -0.0016
     14 C          -4.2480   -1.0150    1.4280 C.ar    1  UNL1       -0.0513
     15 C          -5.6360   -1.0370    1.6020 C.ar    1  UNL1       -0.0428
     16 C          -6.4420   -0.1870    0.8490 C.ar    1  UNL1        0.0410
     17 CL         -8.1490   -0.2150    1.0640 Cl      1  UNL1       -0.0835
     18 C          -5.8740    0.6820   -0.0780 C.ar    1  UNL1       -0.0428
     19 C          -4.4860    0.7020   -0.2510 C.ar    1  UNL1       -0.0513
     20 N          -1.3060   -0.2870    1.3390 N.ar    1  UNL1       -0.3537
     21 C          -0.0050   -0.2030    0.8900 C.ar    1  UNL1        0.0549
     22 C           1.1270   -0.4030    1.7950 C.ar    1  UNL1        0.0018
     23 C           2.1320   -1.3180    1.4820 C.ar    1  UNL1       -0.0345
     24 C           3.1830   -1.4760    2.3700 C.ar    1  UNL1        0.0282
     25 N           3.2950   -0.7960    3.5310 N.ar    1  UNL1       -0.2632
     26 C           2.3130    0.0870    3.8110 C.ar    1  UNL1        0.0282
     27 C           1.2220    0.3150    2.9880 C.ar    1  UNL1       -0.0345
     28 H          -0.6340   -4.0420   -2.9510 H       1  UNL1        0.0262
     29 H          -0.5750   -4.0740   -4.7300 H       1  UNL1        0.0262
     30 H          -1.5910   -2.8890   -3.8720 H       1  UNL1        0.0262
     31 H           0.4870   -1.8230   -4.7330 H       1  UNL1        0.0694
     32 H           1.4650   -3.0000   -3.7890 H       1  UNL1        0.0694
     33 H           2.6230   -1.0260   -4.1440 H       1  UNL1        0.0654
     34 H           4.1690    0.7960   -3.6400 H       1  UNL1        0.0619
     35 H           3.7820    2.2750   -1.6870 H       1  UNL1        0.0618
     36 H           1.8180    1.9180   -0.2360 H       1  UNL1        0.0625
     37 H          -1.8440    0.2760   -1.8200 H       1  UNL1        0.0645
     38 H          -3.6400   -1.7040    2.0090 H       1  UNL1        0.0625
     39 H          -6.0780   -1.7240    2.3190 H       1  UNL1        0.0632
     40 H          -6.4990    1.3450   -0.6690 H       1  UNL1        0.0632
     41 H          -4.0570    1.3910   -0.9750 H       1  UNL1        0.0625
     42 H          -1.5620   -0.4670    2.2990 H       1  UNL1        0.1659
     43 H           2.1010   -1.9010    0.5670 H       1  UNL1        0.0639
     44 H           3.9860   -2.1770    2.1630 H       1  UNL1        0.0830
     45 H           2.4320    0.6280    4.7450 H       1  UNL1        0.0830
     46 H           0.4780    1.0520    3.2690 H       1  UNL1        0.0639
@<TRIPOS>BOND
     1     1     2    1
     2     1    28    1
     3     1    29    1
     4     1    30    1
     5     2     3    1
     6     2    31    1
     7     2    32    1
     8     3     4    1
     9     4     5   ar
    10     4     9   ar
    11     5     6   ar
    12     5    33    1
    13     6     7   ar
    14     6    34    1
    15     7     8   ar
    16     7    35    1
    17     8     9   ar
    18     8    36    1
    19     9    10    1
    20    10    11   ar
    21    10    21   ar
    22    11    12   ar
    23    11    37    1
    24    12    13    1
    25    12    20   ar
    26    13    14   ar
    27    13    19   ar
    28    14    15   ar
    29    14    38    1
    30    15    16   ar
    31    15    39    1
    32    16    17    1
    33    16    18   ar
    34    18    19   ar
    35    18    40    1
    36    19    41    1
    37    20    21   ar
    38    20    42    1
    39    21    22    1
    40    22    23   ar
    41    22    27   ar
    42    23    24   ar
    43    23    43    1
    44    24    25   ar
    45    24    44    1
    46    25    26   ar
    47    26    27   ar
    48    26    45    1
    49    27    46    1
@<TRIPOS>MOLECULE
AD3CC00106993-I00-C00
 68 72 0 0 0
SMALL
GASTEIGER

@<TRIPOS>ATOM
      1 C          -0.4480    3.9800   -1.4510 C.3     1  UNL1       -0.0380
      2 C          -1.0810    2.8210   -0.7290 C.ar    1  UNL1       -0.0291
      3 C          -2.3410    3.0140   -0.1400 C.ar    1  UNL1       -0.0553
      4 C          -2.9840    1.9810    0.5460 C.ar    1  UNL1       -0.0401
      5 C          -2.3820    0.7320    0.6510 C.ar    1  UNL1        0.0354
      6 N          -2.9560   -0.3680    1.3260 N.am    1  UNL1       -0.2814
      7 C          -4.1970   -0.4280    1.9310 C.2     1  UNL1        0.2484
      8 O          -5.0600    0.4410    1.9320 O.2     1  UNL1       -0.2699
      9 C          -4.5020   -1.7110    2.6170 C.ar    1  UNL1        0.0417
     10 C          -5.8120   -2.1750    2.6020 C.ar    1  UNL1       -0.0313
     11 C          -6.0670   -3.3730    3.2300 C.ar    1  UNL1        0.0304
     12 N          -5.1230   -4.1030    3.8650 N.ar    1  UNL1       -0.2403
     13 C          -3.8590   -3.6330    3.9200 C.ar    1  UNL1        0.1221
     14 N          -2.8670   -4.3740    4.5790 N.pl3   1  UNL1       -0.3108
     15 C          -3.2650   -5.7510    4.9580 C.3     1  UNL1        0.0370
     16 C          -4.0590   -5.7790    6.2760 C.3     1  UNL1        0.0634
     17 O          -3.3400   -5.1250    7.3380 O.3     1  UNL1       -0.3767
     18 C          -3.0710   -3.7590    6.9840 C.3     1  UNL1        0.0634
     19 C          -2.2140   -3.6730    5.7090 C.3     1  UNL1        0.0370
     20 C          -3.5180   -2.4380    3.2920 C.ar    1  UNL1       -0.0096
     21 C          -1.1230    0.5340    0.0660 C.ar    1  UNL1       -0.0189
     22 C          -0.4570    1.5620   -0.6180 C.ar    1  UNL1        0.0383
     23 N           0.8150    1.3750   -1.2120 N.am    1  UNL1       -0.2812
     24 C           1.6340    0.2620   -1.1330 C.2     1  UNL1        0.2483
     25 O           1.4410   -0.7510   -0.4730 O.2     1  UNL1       -0.2699
     26 C           2.9010    0.3650   -1.9130 C.ar    1  UNL1        0.0372
     27 C           2.9520    1.0070   -3.1560 C.ar    1  UNL1       -0.0462
     28 C           4.1630    1.0930   -3.8550 C.ar    1  UNL1       -0.0192
     29 C           5.3250    0.5300   -3.3240 C.ar    1  UNL1        0.1211
     30 O           6.5680    0.5500   -3.8910 O.3     1  UNL1       -0.4859
     31 C           6.7120    1.1160   -5.1990 C.3     1  UNL1        0.1313
     32 C           6.7990    2.6270   -5.1850 C.ar    1  UNL1        0.0784
     33 C           7.6760    3.2760   -4.3160 C.ar    1  UNL1       -0.0370
     34 C           7.7420    4.6660   -4.3380 C.ar    1  UNL1       -0.0585
     35 C           6.9390    5.3710   -5.2260 C.ar    1  UNL1       -0.0436
     36 C           6.0990    4.6530   -6.0600 C.ar    1  UNL1        0.0280
     37 N           6.0100    3.3040   -6.0600 N.ar    1  UNL1       -0.2565
     38 C           5.2630   -0.1260   -2.0900 C.ar    1  UNL1       -0.0192
     39 C           4.0590   -0.2160   -1.3890 C.ar    1  UNL1       -0.0462
     40 H          -0.2840    3.7270   -2.5040 H       1  UNL1        0.0278
     41 H           0.5050    4.2460   -0.9820 H       1  UNL1        0.0278
     42 H          -1.0850    4.8710   -1.4250 H       1  UNL1        0.0278
     43 H          -2.8420    3.9780   -0.2080 H       1  UNL1        0.0621
     44 H          -3.9540    2.1880    0.9860 H       1  UNL1        0.0636
     45 H          -2.4050   -1.2180    1.3060 H       1  UNL1        0.1551
     46 H          -6.6040   -1.6240    2.1060 H       1  UNL1        0.0640
     47 H          -7.0670   -3.7980    3.2420 H       1  UNL1        0.0830
     48 H          -2.3390   -6.3220    5.1020 H       1  UNL1        0.0487
     49 H          -3.8130   -6.2560    4.1530 H       1  UNL1        0.0487
     50 H          -4.2200   -6.8180    6.5830 H       1  UNL1        0.0575
     51 H          -5.0440   -5.3110    6.1790 H       1  UNL1        0.0575
     52 H          -2.5330   -3.3030    7.8210 H       1  UNL1        0.0575
     53 H          -4.0220   -3.2240    6.8680 H       1  UNL1        0.0575
     54 H          -1.9790   -2.6280    5.4800 H       1  UNL1        0.0487
     55 H          -1.2570   -4.1750    5.8950 H       1  UNL1        0.0487
     56 H          -2.4940   -2.0860    3.3330 H       1  UNL1        0.0659
     57 H          -0.6690   -0.4480    0.1480 H       1  UNL1        0.0655
     58 H           1.2020    2.1800   -1.6850 H       1  UNL1        0.1551
     59 H           2.0580    1.4250   -3.6100 H       1  UNL1        0.0626
     60 H           4.1590    1.6080   -4.8110 H       1  UNL1        0.0654
     61 H           5.9320    0.7540   -5.8800 H       1  UNL1        0.0763
     62 H           7.6590    0.7370   -5.6020 H       1  UNL1        0.0763
     63 H           8.2940    2.7070   -3.6270 H       1  UNL1        0.0637
     64 H           8.4140    5.1930   -3.6670 H       1  UNL1        0.0619
     65 H           6.9690    6.4540   -5.2690 H       1  UNL1        0.0633
     66 H           5.4550    5.1590   -6.7730 H       1  UNL1        0.0829
     67 H           6.1620   -0.5740   -1.6720 H       1  UNL1        0.0654
     68 H           4.0290   -0.7350   -0.4330 H       1  UNL1        0.0626
@<TRIPOS>BOND
     1     1     2    1
     2     1    40    1
     3     1    41    1
     4     1    42    1
     5     2     3   ar
     6     2    22   ar
     7     3     4   ar
     8     3    43    1
     9     4     5   ar
    10     4    44    1
    11     5     6    1
    12     5    21   ar
    13     6     7   am
    14     6    45    1
    15     7     8    2
    16     7     9    1
    17     9    10   ar
    18     9    20   ar
    19    10    11   ar
    20    10    46    1
    21    11    12   ar
    22    11    47    1
    23    12    13   ar
    24    13    14    1
    25    13    20   ar
    26    14    15    1
    27    14    19    1
    28    15    16    1
    29    15    48    1
    30    15    49    1
    31    16    17    1
    32    16    50    1
    33    16    51    1
    34    17    18    1
    35    18    19    1
    36    18    52    1
    37    18    53    1
    38    19    54    1
    39    19    55    1
    40    20    56    1
    41    21    22   ar
    42    21    57    1
    43    22    23    1
    44    23    24   am
    45    23    58    1
    46    24    25    2
    47    24    26    1
    48    26    27   ar
    49    26    39   ar
    50    27    28   ar
    51    27    59    1
    52    28    29   ar
    53    28    60    1
    54    29    30    1
    55    29    38   ar
    56    30    31    1
    57    31    32    1
    58    31    61    1
    59    31    62    1
    60    32    33   ar
    61    32    37   ar
    62    33    34   ar
    63    33    63    1
    64    34    35   ar
    65    34    64    1
    66    35    36   ar
    67    35    65    1
    68    36    37   ar
    69    36    66    1
    70    38    39   ar
    71    38    67    1
    72    39    68    1
@<TRIPOS>MOLECULE
AD3CC00108625-I00-C00
 56 60 0 0 0
SMALL
GASTEIGER

@<TRIPOS>ATOM
      1 O           1.3800    1.0230    5.3420 O.2     1  UNL1       -0.2702
      2 C           0.9550    0.6190    4.2660 C.2     1  UNL1        0.2443
      3 N           0.0450    1.3120    3.4940 N.am    1  UNL1       -0.3084
      4 C          -0.4270    2.6450    3.8660 C.3     1  UNL1        0.0257
      5 C           0.6120    3.7220    3.5370 C.3     1  UNL1       -0.0219
      6 C           0.6940    3.9920    2.0380 C.3     1  UNL1       -0.0024
      7 N          -0.6140    4.3480    1.4880 N.3     1  UNL1       -0.3159
      8 C          -1.5940    3.2870    1.7030 C.3     1  UNL1       -0.0024
      9 C          -1.7620    2.9690    3.1880 C.3     1  UNL1       -0.0219
     10 C           1.3970   -0.7010    3.7370 C.ar    1  UNL1        0.0373
     11 C           1.7790   -1.6890    4.6520 C.ar    1  UNL1       -0.0496
     12 C           2.2110   -2.9350    4.1980 C.ar    1  UNL1       -0.0604
     13 C           2.2640   -3.1960    2.8270 C.ar    1  UNL1       -0.0525
     14 C           1.8890   -2.2150    1.8980 C.ar    1  UNL1        0.0034
     15 C           1.9610   -2.4960    0.4640 C.ar    1  UNL1        0.1002
     16 N           3.0050   -3.1650   -0.0520 N.ar    1  UNL1       -0.1727
     17 N           2.7560   -3.2050   -1.3690 N.ar    1  UNL1       -0.2763
     18 C           1.5790   -2.6180   -1.7380 C.ar    1  UNL1        0.0681
     19 C           0.9690   -2.4660   -2.9900 C.ar    1  UNL1       -0.0151
     20 C          -0.2750   -1.8140   -3.0510 C.ar    1  UNL1        0.0334
     21 N          -0.8620   -1.6350   -4.3210 N.pl3   1  UNL1       -0.3133
     22 C          -1.8930   -0.7740   -4.7590 C.ar    1  UNL1        0.0499
     23 C          -2.0320    0.5250   -4.2500 C.ar    1  UNL1       -0.0391
     24 C          -3.0600    1.3660   -4.6880 C.ar    1  UNL1       -0.0599
     25 C          -3.9670    0.9230   -5.6480 C.ar    1  UNL1       -0.0603
     26 C          -3.8420   -0.3590   -6.1780 C.ar    1  UNL1       -0.0416
     27 C          -2.8120   -1.1970   -5.7400 C.ar    1  UNL1        0.0621
     28 CL         -2.6950   -2.7800   -6.4330 Cl      1  UNL1       -0.0816
     29 C          -0.8540   -1.3400   -1.8680 C.ar    1  UNL1       -0.0398
     30 C          -0.2290   -1.5030   -0.6210 C.ar    1  UNL1       -0.0487
     31 C           1.0220   -2.1460   -0.5580 C.ar    1  UNL1        0.0275
     32 C           1.4700   -0.9600    2.3610 C.ar    1  UNL1       -0.0404
     33 H          -0.3230    0.8890    2.6560 H       1  UNL1        0.1493
     34 H          -0.5820    2.6320    4.9520 H       1  UNL1        0.0499
     35 H           0.3350    4.6520    4.0520 H       1  UNL1        0.0295
     36 H           1.6030    3.4400    3.9120 H       1  UNL1        0.0295
     37 H           1.3860    4.8230    1.8620 H       1  UNL1        0.0425
     38 H           1.1020    3.1220    1.5100 H       1  UNL1        0.0425
     39 H          -0.5210    4.5340    0.4890 H       1  UNL1        0.1219
     40 H          -2.5590    3.6110    1.2970 H       1  UNL1        0.0425
     41 H          -1.3040    2.3880    1.1460 H       1  UNL1        0.0425
     42 H          -2.4650    2.1350    3.3070 H       1  UNL1        0.0295
     43 H          -2.2120    3.8370    3.6870 H       1  UNL1        0.0295
     44 H           1.7460   -1.4870    5.7210 H       1  UNL1        0.0625
     45 H           2.5130   -3.7000    4.9090 H       1  UNL1        0.0618
     46 H           2.6110   -4.1680    2.4820 H       1  UNL1        0.0624
     47 H           3.4350   -3.6590   -1.9700 H       1  UNL1        0.1889
     48 H           1.4490   -2.8330   -3.8920 H       1  UNL1        0.0657
     49 H          -0.7870   -2.4680   -4.9020 H       1  UNL1        0.1522
     50 H          -1.3170    0.9080   -3.5260 H       1  UNL1        0.0636
     51 H          -3.1450    2.3720   -4.2840 H       1  UNL1        0.0618
     52 H          -4.7640    1.5790   -5.9890 H       1  UNL1        0.0618
     53 H          -4.5460   -0.7010   -6.9320 H       1  UNL1        0.0633
     54 H          -1.8310   -0.8650   -1.8900 H       1  UNL1        0.0636
     55 H          -0.7230   -1.1490    0.2780 H       1  UNL1        0.0625
     56 H           1.2500   -0.1740    1.6450 H       1  UNL1        0.0632
@<TRIPOS>BOND
     1     1     2    2
     2     2     3   am
     3     2    10    1
     4     3     4    1
     5     3    33    1
     6     4     5    1
     7     4     9    1
     8     4    34    1
     9     5     6    1
    10     5    35    1
    11     5    36    1
    12     6     7    1
    13     6    37    1
    14     6    38    1
    15     7     8    1
    16     7    39    1
    17     8     9    1
    18     8    40    1
    19     8    41    1
    20     9    42    1
    21     9    43    1
    22    10    11   ar
    23    10    32   ar
    24    11    12   ar
    25    11    44    1
    26    12    13   ar
    27    12    45    1
    28    13    14   ar
    29    13    46    1
    30    14    15    1
    31    14    32   ar
    32    15    16   ar
    33    15    31   ar
    34    16    17   ar
    35    17    18   ar
    36    17    47    1
    37    18    19   ar
    38    18    31   ar
    39    19    20   ar
    40    19    48    1
    41    20    21    1
    42    20    29   ar
    43    21    22    1
    44    21    49    1
    45    22    23   ar
    46    22    27   ar
    47    23    24   ar
    48    23    50    1
    49    24    25   ar
    50    24    51    1
    51    25    26   ar
    52    25    52    1
    53    26    27   ar
    54    26    53    1
    55    27    28    1
    56    29    30   ar
    57    29    54    1
    58    30    31   ar
    59    30    55    1
    60    32    56    1
@<TRIPOS>MOLECULE
AD3CC00108846-I00-C01
 66 70 0 0 0
SMALL
GASTEIGER

@<TRIPOS>ATOM
      1 C          -5.4780    2.6420    2.6260 C.3     1  UNL1       -0.0471
      2 C          -4.5070    2.9030    1.4480 C.3     1  UNL1        0.0135
      3 C          -3.6210    4.1130    1.8120 C.3     1  UNL1       -0.0471
      4 C          -5.3980    3.2990    0.2450 C.3     1  UNL1       -0.0471
      5 N          -3.7260    1.6670    1.1310 N.3     1  UNL1       -0.2972
      6 C          -2.8740    1.7740   -0.0660 C.3     1  UNL1        0.0027
      7 C          -2.2550    0.4300   -0.4470 C.3     1  UNL1       -0.0029
      8 C          -1.4410   -0.1380    0.7100 C.3     1  UNL1        0.1025
      9 O          -0.9940   -1.4620    0.3910 O.3     1  UNL1       -0.4887
     10 C           0.3100   -1.6180    0.0140 C.ar    1  UNL1        0.1235
     11 C           0.8470   -2.8780    0.2570 C.ar    1  UNL1       -0.0114
     12 C           2.1680   -3.1920   -0.1040 C.ar    1  UNL1       -0.0026
     13 C           2.6560   -4.5510    0.1780 C.ar    1  UNL1        0.0182
     14 C           2.3420   -5.6160   -0.6840 C.ar    1  UNL1       -0.0486
     15 C           2.8010   -6.9070   -0.4120 C.ar    1  UNL1       -0.0257
     16 C           3.5700   -7.1390    0.7240 C.ar    1  UNL1        0.1262
     17 F           4.0080   -8.3790    0.9790 F       1  UNL1       -0.2054
     18 C           3.8920   -6.1080    1.5940 C.ar    1  UNL1        0.0094
     19 C           3.4320   -4.8260    1.3160 C.ar    1  UNL1        0.1338
     20 F           3.7490   -3.8370    2.1650 F       1  UNL1       -0.2048
     21 C           2.9620   -2.1960   -0.7260 C.ar    1  UNL1        0.0071
     22 C           4.3260   -2.4860   -1.1840 C.ar    1  UNL1       -0.0469
     23 C           5.0580   -1.5570   -1.8010 C.ar    1  UNL1        0.0039
     24 C           4.5580   -0.1850   -2.0240 C.ar    1  UNL1        0.2564
     25 O           5.3310    0.6290   -2.5290 O.2     1  UNL1       -0.2673
     26 N           3.2600    0.0870   -1.5940 N.ar    1  UNL1       -0.2713
     27 C           2.7860    1.4250   -1.7390 C.ar    1  UNL1        0.1203
     28 C           2.4360    2.2080   -0.6310 C.ar    1  UNL1        0.1500
     29 F           2.5130    1.7050    0.6110 F       1  UNL1       -0.2032
     30 C           2.0150    3.5300   -0.7780 C.ar    1  UNL1       -0.0242
     31 C           1.9490    4.1010   -2.0480 C.ar    1  UNL1       -0.0562
     32 C           2.3060    3.3440   -3.1630 C.ar    1  UNL1       -0.0242
     33 C           2.7260    2.0230   -3.0030 C.ar    1  UNL1        0.1500
     34 F           3.0160    1.3120   -4.1040 F       1  UNL1       -0.2032
     35 C           2.4330   -0.9040   -0.9600 C.ar    1  UNL1        0.0614
     36 C           1.0910   -0.6530   -0.6170 C.ar    1  UNL1        0.0047
     37 C          -2.3400   -0.2350    1.9380 C.3     1  UNL1       -0.0029
     38 C          -2.9620    1.1210    2.2680 C.3     1  UNL1        0.0027
     39 H          -6.0740    1.7370    2.4570 H       1  UNL1        0.0247
     40 H          -4.9540    2.5360    3.5820 H       1  UNL1        0.0247
     41 H          -6.1790    3.4750    2.7520 H       1  UNL1        0.0247
     42 H          -4.2390    4.9910    2.0360 H       1  UNL1        0.0247
     43 H          -2.9540    4.3940    0.9910 H       1  UNL1        0.0247
     44 H          -3.0080    3.9200    2.6980 H       1  UNL1        0.0247
     45 H          -4.8150    3.6900   -0.5950 H       1  UNL1        0.0247
     46 H          -6.1050    4.0910    0.5210 H       1  UNL1        0.0247
     47 H          -5.9880    2.4460   -0.1100 H       1  UNL1        0.0247
     48 H          -3.4540    2.0990   -0.9350 H       1  UNL1        0.0428
     49 H          -2.0730    2.5080    0.0860 H       1  UNL1        0.0428
     50 H          -1.6270    0.5500   -1.3360 H       1  UNL1        0.0313
     51 H          -3.0410   -0.2800   -0.7370 H       1  UNL1        0.0313
     52 H          -0.6040    0.5260    0.9640 H       1  UNL1        0.0733
     53 H           0.2210   -3.6290    0.7380 H       1  UNL1        0.0660
     54 H           1.7390   -5.4410   -1.5740 H       1  UNL1        0.0625
     55 H           2.5620   -7.7320   -1.0760 H       1  UNL1        0.0646
     56 H           4.4900   -6.2990    2.4770 H       1  UNL1        0.0675
     57 H           4.7450   -3.4740   -1.0320 H       1  UNL1        0.0626
     58 H           6.0650   -1.7570   -2.1480 H       1  UNL1        0.0672
     59 H           1.7560    4.1090    0.1030 H       1  UNL1        0.0647
     60 H           1.6290    5.1330   -2.1690 H       1  UNL1        0.0619
     61 H           2.2630    3.7710   -4.1610 H       1  UNL1        0.0647
     62 H           0.6370    0.2960   -0.8690 H       1  UNL1        0.0675
     63 H          -1.7590   -0.6000    2.7930 H       1  UNL1        0.0313
     64 H          -3.1270   -0.9830    1.7730 H       1  UNL1        0.0313
     65 H          -2.1690    1.8140    2.5750 H       1  UNL1        0.0428
     66 H          -3.6070    0.9570    3.1350 H       1  UNL1        0.0428
@<TRIPOS>BOND
     1     2     1    1
     2     1    39    1
     3     1    40    1
     4     1    41    1
     5     2     3    1
     6     2     4    1
     7     2     5    1
     8     3    42    1
     9     3    43    1
    10     3    44    1
    11     4    45    1
    12     4    46    1
    13     4    47    1
    14     5     6    1
    15     5    38    1
    16     6     7    1
    17     6    48    1
    18     6    49    1
    19     7     8    1
    20     7    50    1
    21     7    51    1
    22     8     9    1
    23     8    37    1
    24     8    52    1
    25     9    10    1
    26    10    11   ar
    27    10    36   ar
    28    11    12   ar
    29    11    53    1
    30    12    13    1
    31    12    21   ar
    32    13    14   ar
    33    13    19   ar
    34    14    15   ar
    35    14    54    1
    36    15    16   ar
    37    15    55    1
    38    16    17    1
    39    16    18   ar
    40    18    19   ar
    41    18    56    1
    42    19    20    1
    43    21    22   ar
    44    21    35   ar
    45    22    23   ar
    46    22    57    1
    47    23    24   ar
    48    23    58    1
    49    24    25    2
    50    24    26   ar
    51    26    27    1
    52    26    35   ar
    53    27    28   ar
    54    27    33   ar
    55    28    29    1
    56    28    30   ar
    57    30    31   ar
    58    30    59    1
    59    31    32   ar
    60    31    60    1
    61    32    33   ar
    62    32    61    1
    63    33    34    1
    64    35    36   ar
    65    36    62    1
    66    37    38    1
    67    37    63    1
    68    37    64    1
    69    38    65    1
    70    38    66    1
@<TRIPOS>MOLECULE
AD3CC00108852-I00-C00
 63 67 0 0 0
SMALL
GASTEIGER

@<TRIPOS>ATOM
      1 C          -4.3520   -1.9440    1.3370 C.3     1  UNL1       -0.0434
      2 C          -3.8840   -0.8980    0.3090 C.3     1  UNL1        0.0328
      3 C          -4.3770   -1.3400   -1.0820 C.3     1  UNL1       -0.0434
      4 C          -2.3710   -0.8560    0.2780 C.2     1  UNL1       -0.0608
      5 C          -1.6430    0.2630    0.4460 C.2     1  UNL1       -0.0406
      6 C          -0.1700    0.2460    0.3820 C.ar    1  UNL1       -0.0195
      7 C           0.5210    1.2000   -0.3680 C.ar    1  UNL1       -0.0459
      8 C           1.9270    1.2150   -0.4260 C.ar    1  UNL1       -0.0068
      9 C           2.5740    2.2560   -1.2480 C.ar    1  UNL1        0.0013
     10 C           2.8400    1.9880   -2.6050 C.ar    1  UNL1       -0.0499
     11 C           3.4470    2.9470   -3.4170 C.ar    1  UNL1       -0.0258
     12 C           3.7890    4.1810   -2.8800 C.ar    1  UNL1        0.1248
     13 F           4.3720    5.1000   -3.6610 F       1  UNL1       -0.2054
     14 C           3.5380    4.4780   -1.5470 C.ar    1  UNL1       -0.0075
     15 C           2.9310    3.5200   -0.7340 C.ar    1  UNL1        0.0514
     16 CL          2.6390    3.9410    0.9190 Cl      1  UNL1       -0.0828
     17 C           2.6560    0.2370    0.2930 C.ar    1  UNL1        0.0069
     18 C           4.1250    0.2060    0.2790 C.ar    1  UNL1       -0.0469
     19 C           4.8050   -0.7180    0.9630 C.ar    1  UNL1        0.0039
     20 C           4.1210   -1.7580    1.7600 C.ar    1  UNL1        0.2563
     21 O           4.8080   -2.5900    2.3510 O.2     1  UNL1       -0.2673
     22 N           2.7330   -1.7160    1.7700 N.ar    1  UNL1       -0.2741
     23 C           2.0480   -2.7110    2.5220 C.ar    1  UNL1        0.0866
     24 C           1.6230   -3.9050    1.9110 C.ar    1  UNL1        0.0663
     25 CL          1.8560   -4.2010    0.2230 Cl      1  UNL1       -0.0814
     26 C           0.9820   -4.8950    2.6620 C.ar    1  UNL1       -0.0413
     27 C           0.7690   -4.7120    4.0280 C.ar    1  UNL1       -0.0589
     28 C           1.1970   -3.5380    4.6470 C.ar    1  UNL1       -0.0413
     29 C           1.8380   -2.5430    3.9020 C.ar    1  UNL1        0.0663
     30 CL          2.3210   -1.1030    4.7300 Cl      1  UNL1       -0.0814
     31 C           1.9720   -0.7360    1.0550 C.ar    1  UNL1        0.0584
     32 C           0.5660   -0.7100    1.0930 C.ar    1  UNL1       -0.0297
     33 C          -2.3390    1.5790    0.6790 C.3     1  UNL1       -0.0095
     34 C          -3.7450    1.4000    1.3050 C.3     1  UNL1        0.0183
     35 C          -4.5100    2.7320    1.1860 C.3     1  UNL1       -0.0467
     36 C          -3.6380    1.0520    2.8030 C.3     1  UNL1       -0.0467
     37 N          -4.5290    0.3990    0.5640 N.3     1  UNL1       -0.3024
     38 H          -5.4460   -2.0230    1.3580 H       1  UNL1        0.0250
     39 H          -4.0200   -1.7090    2.3530 H       1  UNL1        0.0250
     40 H          -3.9620   -2.9400    1.0940 H       1  UNL1        0.0250
     41 H          -5.4710   -1.4200   -1.1140 H       1  UNL1        0.0250
     42 H          -3.9720   -2.3220   -1.3580 H       1  UNL1        0.0250
     43 H          -4.0740   -0.6310   -1.8620 H       1  UNL1        0.0250
     44 H          -1.8740   -1.8030    0.0760 H       1  UNL1        0.0593
     45 H          -0.0380    1.9470   -0.9290 H       1  UNL1        0.0630
     46 H           2.5730    1.0230   -3.0330 H       1  UNL1        0.0625
     47 H           3.6520    2.7390   -4.4630 H       1  UNL1        0.0646
     48 H           3.8160    5.4530   -1.1580 H       1  UNL1        0.0661
     49 H           4.6710    0.9500   -0.2900 H       1  UNL1        0.0626
     50 H           5.8870   -0.7520    0.9660 H       1  UNL1        0.0672
     51 H           0.6540   -5.8170    2.1880 H       1  UNL1        0.0633
     52 H           0.2760   -5.4860    4.6120 H       1  UNL1        0.0618
     53 H           1.0330   -3.4030    5.7140 H       1  UNL1        0.0633
     54 H           0.0140   -1.4270    1.6940 H       1  UNL1        0.0644
     55 H          -2.4190    2.1010   -0.2850 H       1  UNL1        0.0331
     56 H          -1.7340    2.2160    1.3370 H       1  UNL1        0.0331
     57 H          -5.5060    2.6650    1.6390 H       1  UNL1        0.0247
     58 H          -4.6410    3.0270    0.1380 H       1  UNL1        0.0247
     59 H          -3.9700    3.5420    1.6910 H       1  UNL1        0.0247
     60 H          -3.1930    1.8820    3.3640 H       1  UNL1        0.0247
     61 H          -3.0100    0.1750    2.9870 H       1  UNL1        0.0247
     62 H          -4.6250    0.8570    3.2380 H       1  UNL1        0.0247
     63 H          -5.4380    0.2640    1.0010 H       1  UNL1        0.1232
@<TRIPOS>BOND
     1     2     1    1
     2     1    38    1
     3     1    39    1
     4     1    40    1
     5     2     3    1
     6     2     4    1
     7     2    37    1
     8     3    41    1
     9     3    42    1
    10     3    43    1
    11     4     5    2
    12     4    44    1
    13     5     6    1
    14     5    33    1
    15     6     7   ar
    16     6    32   ar
    17     7     8   ar
    18     7    45    1
    19     8     9    1
    20     8    17   ar
    21     9    10   ar
    22     9    15   ar
    23    10    11   ar
    24    10    46    1
    25    11    12   ar
    26    11    47    1
    27    12    13    1
    28    12    14   ar
    29    14    15   ar
    30    14    48    1
    31    15    16    1
    32    17    18   ar
    33    17    31   ar
    34    18    19   ar
    35    18    49    1
    36    19    20   ar
    37    19    50    1
    38    20    21    2
    39    20    22   ar
    40    22    23    1
    41    22    31   ar
    42    23    24   ar
    43    23    29   ar
    44    24    25    1
    45    24    26   ar
    46    26    27   ar
    47    26    51    1
    48    27    28   ar
    49    27    52    1
    50    28    29   ar
    51    28    53    1
    52    29    30    1
    53    31    32   ar
    54    32    54    1
    55    33    34    1
    56    33    55    1
    57    33    56    1
    58    34    35    1
    59    34    36    1
    60    34    37    1
    61    35    57    1
    62    35    58    1
    63    35    59    1
    64    36    60    1
    65    36    61    1
    66    36    62    1
    67    37    63    1
@<TRIPOS>MOLECULE
AD3CC00109463-I00-C00
 56 59 0 0 0
SMALL
GASTEIGER

@<TRIPOS>ATOM
      1 C          -3.4530    3.5600   -2.8720 C.3     1  UNL1        0.0124
      2 C          -3.4820    4.5940   -1.7750 C.2     1  UNL1        0.2125
      3 O          -4.3110    5.5030   -1.8080 O.2     1  UNL1       -0.2759
      4 N          -2.5300    4.4760   -0.7610 N.am    1  UNL1       -0.3010
      5 C          -2.6660    5.3830    0.3780 C.3     1  UNL1        0.0147
      6 C          -1.3310    5.6520    1.0610 C.3     1  UNL1       -0.0364
      7 C          -0.6080    4.3550    1.4110 C.3     1  UNL1       -0.0390
      8 C          -0.4400    3.4830    0.1620 C.3     1  UNL1        0.0517
      9 C           0.2370    2.1570    0.5010 C.2     1  UNL1        0.2229
     10 O          -0.3530    1.0860    0.3880 O.2     1  UNL1       -0.2751
     11 N           1.5380    2.3160    0.9180 N.am    1  UNL1       -0.2701
     12 C           2.4510    1.3370    1.3140 C.ar    1  UNL1        0.1254
     13 C           2.1570   -0.0150    1.4110 C.ar    1  UNL1       -0.0138
     14 C           3.1550   -0.9180    1.8120 C.ar    1  UNL1       -0.0131
     15 C           2.8730   -2.3600    1.9130 C.ar    1  UNL1       -0.0131
     16 C           3.2360   -3.0990    3.0410 C.ar    1  UNL1       -0.0357
     17 C           2.9440   -4.4520    3.0720 C.ar    1  UNL1        0.0303
     18 N           2.3140   -5.1100    2.0770 N.ar    1  UNL1       -0.2402
     19 C           1.9350   -4.4000    0.9960 C.ar    1  UNL1        0.1234
     20 N           1.2920   -5.1230   -0.0130 N.pl3   1  UNL1       -0.2994
     21 C           0.2390   -4.7760   -0.8800 C.ar    1  UNL1        0.0325
     22 C          -0.0150   -5.6130   -1.9790 C.ar    1  UNL1       -0.0378
     23 C          -1.0250   -5.3130   -2.8960 C.ar    1  UNL1       -0.0247
     24 C          -1.7890   -4.1690   -2.7180 C.ar    1  UNL1        0.1235
     25 F          -2.7580   -3.8770   -3.5950 F       1  UNL1       -0.2055
     26 C          -1.5610   -3.3230   -1.6420 C.ar    1  UNL1       -0.0247
     27 C          -0.5490   -3.6270   -0.7260 C.ar    1  UNL1       -0.0378
     28 C           2.2210   -3.0430    0.8760 C.ar    1  UNL1       -0.0139
     29 C           4.4190   -0.3990    2.1050 C.ar    1  UNL1       -0.0357
     30 C           4.6230    0.9640    1.9870 C.ar    1  UNL1        0.0303
     31 N           3.6690    1.8380    1.6030 N.ar    1  UNL1       -0.2401
     32 C          -1.7980    3.2310   -0.5030 C.3     1  UNL1        0.0258
     33 H          -4.1860    3.8270   -3.6390 H       1  UNL1        0.0323
     34 H          -3.7180    2.5770   -2.4730 H       1  UNL1        0.0323
     35 H          -2.4670    3.5340   -3.3440 H       1  UNL1        0.0323
     36 H          -3.1040    6.3350    0.0590 H       1  UNL1        0.0464
     37 H          -3.3700    4.9200    1.0800 H       1  UNL1        0.0464
     38 H          -0.6950    6.2460    0.3930 H       1  UNL1        0.0281
     39 H          -1.4910    6.2470    1.9670 H       1  UNL1        0.0281
     40 H           0.3650    4.5960    1.8540 H       1  UNL1        0.0273
     41 H          -1.1720    3.8100    2.1780 H       1  UNL1        0.0273
     42 H           0.2030    4.0090   -0.5580 H       1  UNL1        0.0410
     43 H           1.9570    3.2370    0.9180 H       1  UNL1        0.1562
     44 H           1.1630   -0.3890    1.1930 H       1  UNL1        0.0658
     45 H           3.7300   -2.6370    3.8890 H       1  UNL1        0.0639
     46 H           3.2130   -5.0610    3.9300 H       1  UNL1        0.0830
     47 H           1.2520   -6.0940    0.2820 H       1  UNL1        0.1536
     48 H           0.5900   -6.5040   -2.1330 H       1  UNL1        0.0637
     49 H          -1.2150   -5.9620   -3.7450 H       1  UNL1        0.0647
     50 H          -2.1720   -2.4350   -1.5140 H       1  UNL1        0.0647
     51 H          -0.4120   -2.9620    0.1220 H       1  UNL1        0.0637
     52 H           1.9610   -2.5210   -0.0400 H       1  UNL1        0.0658
     53 H           5.2400   -1.0420    2.4050 H       1  UNL1        0.0639
     54 H           5.5940    1.4030    2.2020 H       1  UNL1        0.0830
     55 H          -1.6420    2.6750   -1.4320 H       1  UNL1        0.0472
     56 H          -2.4440    2.6110    0.1320 H       1  UNL1        0.0472
@<TRIPOS>BOND
     1     1     2    1
     2     1    33    1
     3     1    34    1
     4     1    35    1
     5     2     3    2
     6     2     4   am
     7     4     5    1
     8     4    32    1
     9     5     6    1
    10     5    36    1
    11     5    37    1
    12     6     7    1
    13     6    38    1
    14     6    39    1
    15     7     8    1
    16     7    40    1
    17     7    41    1
    18     8     9    1
    19     8    32    1
    20     8    42    1
    21     9    10    2
    22     9    11   am
    23    11    12    1
    24    11    43    1
    25    12    13   ar
    26    12    31   ar
    27    13    14   ar
    28    13    44    1
    29    14    15    1
    30    14    29   ar
    31    15    16   ar
    32    15    28   ar
    33    16    17   ar
    34    16    45    1
    35    17    18   ar
    36    17    46    1
    37    18    19   ar
    38    19    20    1
    39    19    28   ar
    40    20    21    1
    41    20    47    1
    42    21    22   ar
    43    21    27   ar
    44    22    23   ar
    45    22    48    1
    46    23    24   ar
    47    23    49    1
    48    24    25    1
    49    24    26   ar
    50    26    27   ar
    51    26    50    1
    52    27    51    1
    53    28    52    1
    54    29    30   ar
    55    29    53    1
    56    30    31   ar
    57    30    54    1
    58    32    55    1
    59    32    56    1
@<TRIPOS>MOLECULE
AD3CC00110839-I00-C00
 85 89 0 0 0
SMALL
GASTEIGER

@<TRIPOS>ATOM
      1 C          -0.6260   -4.0790    0.2910 C.3     1  UNL1        0.0788
      2 O          -0.5710   -3.0370    1.2580 O.3     1  UNL1       -0.4950
      3 C          -1.0190   -1.8030    0.8730 C.ar    1  UNL1        0.1237
      4 C          -0.9740   -0.8320    1.8720 C.ar    1  UNL1       -0.0180
      5 C          -1.3960    0.4750    1.6170 C.ar    1  UNL1       -0.0328
      6 C          -1.8530    0.8490    0.3430 C.ar    1  UNL1        0.0877
      7 N          -2.2170    2.2200    0.0950 N.am    1  UNL1       -0.1857
      8 C          -2.9440    2.9230    1.0640 C.2     1  UNL1        0.4182
      9 O          -3.5710    2.3910    1.9800 O.2     1  UNL1       -0.2250
     10 O          -2.8590    4.3140    0.9220 O.3     1  UNL1       -0.4104
     11 C          -3.4890    5.0630    1.9310 C.ar    1  UNL1        0.1390
     12 C          -2.7600    5.3890    3.0850 C.ar    1  UNL1       -0.0078
     13 C          -1.3570    4.8970    3.2900 C.3     1  UNL1       -0.0362
     14 C          -3.3840    6.1690    4.0660 C.ar    1  UNL1       -0.0553
     15 C          -4.6910    6.6270    3.8820 C.ar    1  UNL1       -0.0610
     16 C          -5.3920    6.3130    2.7170 C.ar    1  UNL1       -0.0553
     17 C          -4.7980    5.5290    1.7190 C.ar    1  UNL1       -0.0078
     18 C          -5.5570    5.2050    0.4680 C.3     1  UNL1       -0.0362
     19 C          -1.6460    2.8200   -1.0790 C.ar    1  UNL1        0.1397
     20 C          -2.2600    3.8750   -1.7220 C.ar    1  UNL1       -0.0026
     21 C          -1.6160    4.3780   -2.8280 C.ar    1  UNL1        0.0345
     22 N          -0.4630    3.8830   -3.3060 N.ar    1  UNL1       -0.2225
     23 C           0.0650    2.8390   -2.6520 C.ar    1  UNL1        0.2212
     24 N           1.2100    2.2970   -3.2280 N.pl3   1  UNL1       -0.2836
     25 C           2.0020    1.1870   -2.9260 C.ar    1  UNL1        0.0338
     26 C           2.9150    0.7320   -3.8870 C.ar    1  UNL1       -0.0370
     27 C           3.7090   -0.3960   -3.6570 C.ar    1  UNL1       -0.0182
     28 C           3.6220   -1.0930   -2.4550 C.ar    1  UNL1        0.1207
     29 O           4.4470   -2.1790   -2.3590 O.3     1  UNL1       -0.4907
     30 C           4.7180   -2.6930   -1.0500 C.3     1  UNL1        0.1022
     31 C           3.8000   -3.8870   -0.7380 C.3     1  UNL1        0.0332
     32 N           4.1410   -4.5980    0.5070 N.3     1  UNL1       -0.2967
     33 C           3.8760   -3.7780    1.7080 C.3     1  UNL1        0.0118
     34 C           4.1600   -4.5480    3.0180 C.3     1  UNL1        0.0114
     35 N           3.3810   -5.7960    3.1120 N.3     1  UNL1       -0.3029
     36 C           3.7190   -6.5230    4.3340 C.3     1  UNL1       -0.0127
     37 C           3.6470   -6.6200    1.9180 C.3     1  UNL1        0.0114
     38 C           3.3600   -5.8510    0.6080 C.3     1  UNL1        0.0118
     39 C           2.7110   -0.6630   -1.4940 C.ar    1  UNL1       -0.0182
     40 C           1.9140    0.4660   -1.7310 C.ar    1  UNL1       -0.0370
     41 N          -0.4850    2.3120   -1.5530 N.ar    1  UNL1       -0.1985
     42 C          -1.9200   -0.1450   -0.6600 C.ar    1  UNL1        0.1453
     43 O          -2.5070    0.1900   -1.8610 O.3     1  UNL1       -0.4931
     44 C          -1.9030   -0.4030   -3.0080 C.3     1  UNL1        0.0789
     45 C          -1.5090   -1.4610   -0.3880 C.ar    1  UNL1        0.0236
     46 H           0.0330   -3.8580   -0.5560 H       1  UNL1        0.0660
     47 H          -0.2710   -5.0010    0.7640 H       1  UNL1        0.0660
     48 H          -1.6560   -4.2520   -0.0410 H       1  UNL1        0.0660
     49 H          -0.6100   -1.0940    2.8630 H       1  UNL1        0.0655
     50 H          -1.3360    1.1990    2.4260 H       1  UNL1        0.0639
     51 H          -0.8850    5.3760    4.1530 H       1  UNL1        0.0279
     52 H          -1.3550    3.8150    3.4610 H       1  UNL1        0.0279
     53 H          -0.7410    5.1240    2.4150 H       1  UNL1        0.0279
     54 H          -2.8590    6.4260    4.9840 H       1  UNL1        0.0621
     55 H          -5.1640    7.2310    4.6530 H       1  UNL1        0.0618
     56 H          -6.4080    6.6840    2.5980 H       1  UNL1        0.0621
     57 H          -6.5720    5.6110    0.4980 H       1  UNL1        0.0279
     58 H          -5.6390    4.1210    0.3370 H       1  UNL1        0.0279
     59 H          -5.0520    5.6400   -0.4000 H       1  UNL1        0.0279
     60 H          -3.2110    4.2880   -1.4200 H       1  UNL1        0.0667
     61 H          -2.0310    5.2140   -3.3850 H       1  UNL1        0.0832
     62 H           1.4250    2.8040   -4.0740 H       1  UNL1        0.1550
     63 H           3.0160    1.2520   -4.8360 H       1  UNL1        0.0637
     64 H           4.4050   -0.7300   -4.4250 H       1  UNL1        0.0655
     65 H           5.7580   -3.0430   -1.0720 H       1  UNL1        0.0709
     66 H           4.6810   -1.9050   -0.2880 H       1  UNL1        0.0709
     67 H           3.8880   -4.5820   -1.5830 H       1  UNL1        0.0460
     68 H           2.7510   -3.5690   -0.7330 H       1  UNL1        0.0460
     69 H           4.5200   -2.8930    1.7030 H       1  UNL1        0.0439
     70 H           2.8380   -3.4290    1.7120 H       1  UNL1        0.0439
     71 H           3.9070   -3.8950    3.8610 H       1  UNL1        0.0439
     72 H           5.2360   -4.7590    3.0780 H       1  UNL1        0.0439
     73 H           4.7780   -6.8040    4.3750 H       1  UNL1        0.0391
     74 H           3.1190   -7.4350    4.4110 H       1  UNL1        0.0391
     75 H           3.4880   -5.9150    5.2160 H       1  UNL1        0.0391
     76 H           3.0080   -7.5090    1.9390 H       1  UNL1        0.0439
     77 H           4.6900   -6.9660    1.9060 H       1  UNL1        0.0439
     78 H           2.2840   -5.6400    0.5440 H       1  UNL1        0.0439
     79 H           3.6120   -6.5080   -0.2320 H       1  UNL1        0.0439
     80 H           2.5770   -1.1830   -0.5520 H       1  UNL1        0.0655
     81 H           1.2240    0.7680   -0.9490 H       1  UNL1        0.0637
     82 H          -0.8130   -0.4660   -2.9210 H       1  UNL1        0.0660
     83 H          -2.3320   -1.3910   -3.1930 H       1  UNL1        0.0660
     84 H          -2.1330    0.2300   -3.8710 H       1  UNL1        0.0660
     85 H          -1.6010   -2.2140   -1.1600 H       1  UNL1        0.0691
@<TRIPOS>BOND
     1     1     2    1
     2     1    46    1
     3     1    47    1
     4     1    48    1
     5     2     3    1
     6     3     4   ar
     7     3    45   ar
     8     4     5   ar
     9     4    49    1
    10     5     6   ar
    11     5    50    1
    12     6     7    1
    13     6    42   ar
    14     7     8   am
    15     7    19    1
    16     8     9    2
    17     8    10    1
    18    10    11    1
    19    11    12   ar
    20    11    17   ar
    21    12    13    1
    22    12    14   ar
    23    13    51    1
    24    13    52    1
    25    13    53    1
    26    14    15   ar
    27    14    54    1
    28    15    16   ar
    29    15    55    1
    30    16    17   ar
    31    16    56    1
    32    17    18    1
    33    18    57    1
    34    18    58    1
    35    18    59    1
    36    19    20   ar
    37    19    41   ar
    38    20    21   ar
    39    20    60    1
    40    21    22   ar
    41    21    61    1
    42    22    23   ar
    43    23    24    1
    44    23    41   ar
    45    24    25    1
    46    24    62    1
    47    25    26   ar
    48    25    40   ar
    49    26    27   ar
    50    26    63    1
    51    27    28   ar
    52    27    64    1
    53    28    29    1
    54    28    39   ar
    55    29    30    1
    56    30    31    1
    57    30    65    1
    58    30    66    1
    59    31    32    1
    60    31    67    1
    61    31    68    1
    62    32    33    1
    63    32    38    1
    64    33    34    1
    65    33    69    1
    66    33    70    1
    67    34    35    1
    68    34    71    1
    69    34    72    1
    70    35    36    1
    71    35    37    1
    72    36    73    1
    73    36    74    1
    74    36    75    1
    75    37    38    1
    76    37    76    1
    77    37    77    1
    78    38    78    1
    79    38    79    1
    80    39    40   ar
    81    39    80    1
    82    40    81    1
    83    42    43    1
    84    42    45   ar
    85    43    44    1
    86    44    82    1
    87    44    83    1
    88    44    84    1
    89    45    85    1
@<TRIPOS>MOLECULE
AD3CC00112836-I00-C01
 63 67 0 0 0
SMALL
GASTEIGER

@<TRIPOS>ATOM
      1 C           1.5580   -0.9520   -5.4170 C.3     1  UNL1        0.0788
      2 O           1.7500   -1.5600   -4.1380 O.3     1  UNL1       -0.4943
      3 C           0.5700   -1.5880   -3.4410 C.ar    1  UNL1        0.1342
      4 C          -0.3470   -2.6050   -3.7220 C.ar    1  UNL1        0.0049
      5 C          -1.5170   -2.6800   -2.9460 C.ar    1  UNL1        0.0530
      6 C          -1.7830   -1.7870   -1.9000 C.ar    1  UNL1        0.0118
      7 C          -0.8510   -0.7560   -1.6530 C.ar    1  UNL1       -0.0362
      8 C           0.3340   -0.6870   -2.4050 C.ar    1  UNL1        0.0792
      9 C           1.2900    0.4010   -2.1040 C.2     1  UNL1        0.2505
     10 O           1.5310    1.2200   -2.9880 O.2     1  UNL1       -0.2698
     11 N           1.8070    0.4960   -0.8110 N.am    1  UNL1       -0.2899
     12 C           1.8630   -0.6190    0.1460 C.3     1  UNL1        0.0334
     13 C           1.5010   -0.1340    1.5460 C.3     1  UNL1        0.0408
     14 N           2.2690    1.0530    1.8760 N.ar    1  UNL1       -0.3246
     15 C           2.8480    1.8490    0.9140 C.ar    1  UNL1        0.0560
     16 C           3.5490    2.7930    1.6260 C.ar    1  UNL1        0.0508
     17 N           3.4180    2.5810    2.9730 N.ar    1  UNL1       -0.2354
     18 C           2.6100    1.5430    3.1160 C.ar    1  UNL1        0.1438
     19 C           2.2100    0.9870    4.4090 C.ar    1  UNL1        0.0528
     20 C           3.1850    0.8040    5.4030 C.ar    1  UNL1       -0.0456
     21 C           2.8370    0.2850    6.6530 C.ar    1  UNL1       -0.0256
     22 C           1.5110   -0.0410    6.9140 C.ar    1  UNL1        0.1262
     23 F           1.1790   -0.5390    8.1120 F       1  UNL1       -0.2054
     24 C           0.5260    0.1490    5.9560 C.ar    1  UNL1        0.0095
     25 C           0.8810    0.6680    4.7140 C.ar    1  UNL1        0.1367
     26 F          -0.0920    0.8750    3.8160 F       1  UNL1       -0.2047
     27 C           2.7060    1.6150   -0.5470 C.3     1  UNL1        0.0568
     28 C          -3.0220   -2.1880   -1.2950 C.ar    1  UNL1        0.0521
     29 C          -3.7160   -1.6390   -0.1310 C.2     1  UNL1        0.2494
     30 O          -4.8620   -1.9680    0.1730 O.2     1  UNL1       -0.2817
     31 C          -3.0110   -0.6270    0.7730 C.2     1  UNL1        0.2866
     32 O          -2.0460   -1.0160    1.4270 O.2     1  UNL1       -0.2664
     33 N          -3.4870    0.6880    0.7690 N.am    1  UNL1       -0.3010
     34 C          -4.7380    1.0650    0.1300 C.3     1  UNL1        0.0032
     35 C          -2.9510    1.6120    1.7520 C.3     1  UNL1        0.0032
     36 C          -3.4890   -3.2640   -2.0300 C.ar    1  UNL1        0.0164
     37 N          -2.5780   -3.5580   -3.0050 N.ar    1  UNL1       -0.3489
     38 C          -2.7100   -4.6420   -3.9550 C.3     1  UNL1        0.0119
     39 H           1.0080   -0.0080   -5.3480 H       1  UNL1        0.0660
     40 H           1.0400   -1.6410   -6.0940 H       1  UNL1        0.0660
     41 H           2.5450   -0.7410   -5.8390 H       1  UNL1        0.0660
     42 H          -0.1450   -3.3260   -4.5090 H       1  UNL1        0.0675
     43 H          -1.0210   -0.0160   -0.8760 H       1  UNL1        0.0633
     44 H           2.8910   -1.0050    0.1230 H       1  UNL1        0.0482
     45 H           1.2150   -1.4490   -0.1420 H       1  UNL1        0.0482
     46 H           0.4470    0.1560    1.5880 H       1  UNL1        0.0508
     47 H           1.7070   -0.9110    2.2870 H       1  UNL1        0.0508
     48 H           4.1540    3.6040    1.2420 H       1  UNL1        0.0848
     49 H           4.2210    1.0740    5.2020 H       1  UNL1        0.0626
     50 H           3.5900    0.1410    7.4210 H       1  UNL1        0.0646
     51 H          -0.5070   -0.0950    6.1730 H       1  UNL1        0.0675
     52 H           2.3290    2.5180   -1.0400 H       1  UNL1        0.0529
     53 H           3.6810    1.3690   -0.9860 H       1  UNL1        0.0529
     54 H          -4.9030    0.4930   -0.7860 H       1  UNL1        0.0428
     55 H          -4.7080    2.1270   -0.1300 H       1  UNL1        0.0428
     56 H          -5.5590    0.8780    0.8280 H       1  UNL1        0.0428
     57 H          -3.6170    1.6260    2.6200 H       1  UNL1        0.0428
     58 H          -1.9510    1.3140    2.0760 H       1  UNL1        0.0428
     59 H          -2.8940    2.6120    1.3140 H       1  UNL1        0.0428
     60 H          -4.3920   -3.8500   -1.9060 H       1  UNL1        0.0816
     61 H          -1.8730   -5.3300   -3.8100 H       1  UNL1        0.0456
     62 H          -2.6970   -4.2200   -4.9630 H       1  UNL1        0.0456
     63 H          -3.6540   -5.1650   -3.7850 H       1  UNL1        0.0456
@<TRIPOS>BOND
     1     1     2    1
     2     1    39    1
     3     1    40    1
     4     1    41    1
     5     2     3    1
     6     3     4   ar
     7     3     8   ar
     8     4     5   ar
     9     4    42    1
    10     5     6   ar
    11     5    37   ar
    12     6     7   ar
    13     6    28   ar
    14     7     8   ar
    15     7    43    1
    16     8     9    1
    17     9    10    2
    18     9    11   am
    19    11    12    1
    20    11    27    1
    21    12    13    1
    22    12    44    1
    23    12    45    1
    24    13    14    1
    25    13    46    1
    26    13    47    1
    27    14    15   ar
    28    14    18   ar
    29    15    16   ar
    30    15    27    1
    31    16    17   ar
    32    16    48    1
    33    17    18   ar
    34    18    19    1
    35    19    20   ar
    36    19    25   ar
    37    20    21   ar
    38    20    49    1
    39    21    22   ar
    40    21    50    1
    41    22    23    1
    42    22    24   ar
    43    24    25   ar
    44    24    51    1
    45    25    26    1
    46    27    52    1
    47    27    53    1
    48    28    29    1
    49    28    36   ar
    50    29    30    2
    51    29    31    1
    52    31    32    2
    53    31    33   am
    54    33    34    1
    55    33    35    1
    56    34    54    1
    57    34    55    1
    58    34    56    1
    59    35    57    1
    60    35    58    1
    61    35    59    1
    62    36    37   ar
    63    36    60    1
    64    37    38    1
    65    38    61    1
    66    38    62    1
    67    38    63    1
@<TRIPOS>MOLECULE
AD3CC00117234-I00-C00
 77 81 0 0 0
SMALL
GASTEIGER

@<TRIPOS>ATOM
      1 C           4.3780    2.5870   -4.6290 C.3     1  UNL1       -0.0380
      2 C           3.9630    2.3260   -3.2050 C.ar    1  UNL1       -0.0292
      3 C           4.2760    3.2790   -2.2230 C.ar    1  UNL1       -0.0553
      4 C           3.8730    3.1060   -0.8970 C.ar    1  UNL1       -0.0401
      5 C           3.1640    1.9690   -0.5280 C.ar    1  UNL1        0.0354
      6 N           2.6400    1.7470    0.7600 N.am    1  UNL1       -0.2814
      7 C           2.7490    2.5630    1.8700 C.2     1  UNL1        0.2484
      8 O           3.4800    3.5350    2.0060 O.2     1  UNL1       -0.2699
      9 C           1.8800    2.1570    3.0070 C.ar    1  UNL1        0.0415
     10 C           2.3680    2.2770    4.3040 C.ar    1  UNL1       -0.0142
     11 C           1.5530    1.8850    5.3510 C.ar    1  UNL1        0.1259
     12 F           2.0090    1.9760    6.6080 F       1  UNL1       -0.2054
     13 C           0.2680    1.3870    5.1270 C.ar    1  UNL1       -0.0054
     14 C          -0.2640    1.2750    3.8330 C.ar    1  UNL1        0.0333
     15 N          -1.5370    0.7880    3.6010 N.pl3   1  UNL1       -0.3254
     16 C          -2.5540    0.7200    4.6660 C.3     1  UNL1        0.0357
     17 C          -3.9680    0.7770    4.0610 C.3     1  UNL1        0.0634
     18 O          -4.2480   -0.2810    3.1340 O.3     1  UNL1       -0.3767
     19 C          -3.0850   -0.7230    2.4180 C.3     1  UNL1        0.0634
     20 C          -1.9920    0.3490    2.2670 C.3     1  UNL1        0.0357
     21 C           0.5730    1.6840    2.7820 C.ar    1  UNL1       -0.0284
     22 C           2.8890    0.9950   -1.4970 C.ar    1  UNL1       -0.0190
     23 C           3.2630    1.1570   -2.8410 C.ar    1  UNL1        0.0371
     24 N           2.9020    0.2200   -3.8490 N.pl3   1  UNL1       -0.2974
     25 C           2.1750   -0.9320   -3.6460 C.ar    1  UNL1        0.1506
     26 N           2.7640   -2.0440   -3.9940 N.ar    1  UNL1       -0.2167
     27 C           2.1330   -3.2400   -3.7690 C.ar    1  UNL1        0.1388
     28 N           0.9720   -3.4170   -3.2240 N.ar    1  UNL1       -0.1548
     29 N           0.3450   -2.2760   -2.9050 N.ar    1  UNL1       -0.2342
     30 C          -0.8860   -2.1980   -2.3230 C.ar    1  UNL1        0.0423
     31 C          -1.2410   -0.8650   -2.2080 C.ar    1  UNL1        0.0598
     32 C          -2.4730   -0.3420   -1.6150 C.2     1  UNL1        0.2459
     33 O          -2.5570    0.8030   -1.1820 O.2     1  UNL1       -0.2701
     34 N          -3.5190   -1.2310   -1.5770 N.am    1  UNL1       -0.3101
     35 C          -4.8670   -0.8090   -1.2460 C.3     1  UNL1        0.0246
     36 C          -5.7850   -2.0240   -1.0270 C.3     1  UNL1        0.0139
     37 N          -5.6670   -3.0450   -2.0950 N.3     1  UNL1       -0.3069
     38 C          -6.2310   -2.5670   -3.3610 C.3     1  UNL1       -0.0130
     39 C          -6.3570   -4.2730   -1.6830 C.3     1  UNL1       -0.0130
     40 C          -0.1530   -0.1090   -2.7800 C.ar    1  UNL1       -0.0081
     41 C          -0.1440    1.3720   -2.9620 C.3     1  UNL1       -0.0368
     42 C           0.8390   -1.0240   -3.1160 C.ar    1  UNL1        0.1090
     43 H           4.8360    3.5750   -4.7400 H       1  UNL1        0.0278
     44 H           3.5070    2.5540   -5.2920 H       1  UNL1        0.0278
     45 H           5.1110    1.8420   -4.9520 H       1  UNL1        0.0278
     46 H           4.8210    4.1840   -2.4850 H       1  UNL1        0.0621
     47 H           4.1140    3.8860   -0.1800 H       1  UNL1        0.0636
     48 H           2.1000    0.8970    0.8710 H       1  UNL1        0.1551
     49 H           3.3630    2.6630    4.5000 H       1  UNL1        0.0654
     50 H          -0.3000    1.0760    5.9980 H       1  UNL1        0.0665
     51 H          -2.4240   -0.2180    5.2170 H       1  UNL1        0.0486
     52 H          -2.4550    1.5600    5.3640 H       1  UNL1        0.0486
     53 H          -4.7190    0.7230    4.8560 H       1  UNL1        0.0575
     54 H          -4.1200    1.7280    3.5360 H       1  UNL1        0.0575
     55 H          -2.6860   -1.5950    2.9490 H       1  UNL1        0.0575
     56 H          -3.4140   -1.0690    1.4360 H       1  UNL1        0.0575
     57 H          -1.1710   -0.0940    1.6910 H       1  UNL1        0.0486
     58 H          -2.3820    1.2140    1.7210 H       1  UNL1        0.0486
     59 H           0.1910    1.6820    1.7640 H       1  UNL1        0.0644
     60 H           2.3570    0.1000   -1.1910 H       1  UNL1        0.0655
     61 H           3.7260    0.0130   -4.4060 H       1  UNL1        0.1536
     62 H           2.6950   -4.1380   -4.0760 H       1  UNL1        0.1066
     63 H          -1.3980   -3.1060   -2.0350 H       1  UNL1        0.0838
     64 H          -3.4580   -2.0810   -2.1270 H       1  UNL1        0.1490
     65 H          -4.8390   -0.1850   -0.3470 H       1  UNL1        0.0475
     66 H          -5.2290   -0.1810   -2.0680 H       1  UNL1        0.0475
     67 H          -6.8230   -1.6890   -0.9040 H       1  UNL1        0.0442
     68 H          -5.4800   -2.4820   -0.0760 H       1  UNL1        0.0442
     69 H          -5.6750   -1.7040   -3.7410 H       1  UNL1        0.0391
     70 H          -6.1500   -3.3420   -4.1320 H       1  UNL1        0.0391
     71 H          -7.2860   -2.2870   -3.2650 H       1  UNL1        0.0391
     72 H          -5.9150   -4.6740   -0.7640 H       1  UNL1        0.0391
     73 H          -7.4260   -4.1080   -1.5090 H       1  UNL1        0.0391
     74 H          -6.2460   -5.0510   -2.4470 H       1  UNL1        0.0391
     75 H           0.5480    1.6790   -3.7520 H       1  UNL1        0.0278
     76 H          -1.1350    1.7290   -3.2640 H       1  UNL1        0.0278
     77 H           0.1300    1.8740   -2.0300 H       1  UNL1        0.0278
@<TRIPOS>BOND
     1     1     2    1
     2     1    43    1
     3     1    44    1
     4     1    45    1
     5     2     3   ar
     6     2    23   ar
     7     3     4   ar
     8     3    46    1
     9     4     5   ar
    10     4    47    1
    11     5     6    1
    12     5    22   ar
    13     6     7   am
    14     6    48    1
    15     7     8    2
    16     7     9    1
    17     9    10   ar
    18     9    21   ar
    19    10    11   ar
    20    10    49    1
    21    11    12    1
    22    11    13   ar
    23    13    14   ar
    24    13    50    1
    25    14    15    1
    26    14    21   ar
    27    15    16    1
    28    15    20    1
    29    16    17    1
    30    16    51    1
    31    16    52    1
    32    17    18    1
    33    17    53    1
    34    17    54    1
    35    18    19    1
    36    19    20    1
    37    19    55    1
    38    19    56    1
    39    20    57    1
    40    20    58    1
    41    21    59    1
    42    22    23   ar
    43    22    60    1
    44    23    24    1
    45    24    25    1
    46    24    61    1
    47    25    26   ar
    48    25    42   ar
    49    26    27   ar
    50    27    28   ar
    51    27    62    1
    52    28    29   ar
    53    29    30   ar
    54    29    42   ar
    55    30    31   ar
    56    30    63    1
    57    31    32    1
    58    31    40   ar
    59    32    33    2
    60    32    34   am
    61    34    35    1
    62    34    64    1
    63    35    36    1
    64    35    65    1
    65    35    66    1
    66    36    37    1
    67    36    67    1
    68    36    68    1
    69    37    38    1
    70    37    39    1
    71    38    69    1
    72    38    70    1
    73    38    71    1
    74    39    72    1
    75    39    73    1
    76    39    74    1
    77    40    41    1
    78    40    42   ar
    79    41    75    1
    80    41    76    1
    81    41    77    1
@<TRIPOS>MOLECULE
AD3CC00117668-I00-C01
 57 60 0 0 0
SMALL
GASTEIGER

@<TRIPOS>ATOM
      1 C          -3.9680   -1.8300    2.7880 C.3     1  UNL1       -0.0414
      2 C          -2.5850   -1.7050    3.4130 C.3     1  UNL1        0.0794
      3 N          -1.5850   -2.4750    2.6280 N.3     1  UNL1       -0.3202
      4 C          -2.1370   -0.2300    3.5100 C.2     1  UNL1        0.2297
      5 O          -2.9020    0.7270    3.4630 O.2     1  UNL1       -0.2741
      6 N          -0.7720   -0.1050    3.6880 N.am    1  UNL1       -0.3108
      7 C          -0.1100    1.1780    3.5420 C.3     1  UNL1        0.0458
      8 C          -0.0180    1.6080    2.0750 C.3     1  UNL1        0.1050
      9 O           0.8160    0.6600    1.3910 O.3     1  UNL1       -0.4903
     10 C           0.5260    0.4780    0.0680 C.ar    1  UNL1        0.1232
     11 C           0.1070    1.4860   -0.7920 C.ar    1  UNL1       -0.0115
     12 C          -0.1700    1.2100   -2.1440 C.ar    1  UNL1       -0.0039
     13 C          -0.6190    2.3240   -3.0000 C.ar    1  UNL1        0.0012
     14 C           0.3400    3.0940   -3.6830 C.ar    1  UNL1       -0.0526
     15 C          -0.0420    4.1590   -4.5010 C.ar    1  UNL1       -0.0611
     16 C          -1.3900    4.4760   -4.6490 C.ar    1  UNL1       -0.0603
     17 C          -2.3570    3.7290   -3.9780 C.ar    1  UNL1       -0.0428
     18 C          -1.9770    2.6610   -3.1590 C.ar    1  UNL1        0.0487
     19 CL         -3.2310    1.7760   -2.3600 Cl      1  UNL1       -0.0829
     20 C          -0.0040   -0.1140   -2.6260 C.ar    1  UNL1        0.0071
     21 C          -0.2800   -0.4630   -4.0260 C.ar    1  UNL1       -0.0469
     22 C          -0.1220   -1.7110   -4.4730 C.ar    1  UNL1        0.0039
     23 C           0.3350   -2.8040   -3.5880 C.ar    1  UNL1        0.2563
     24 O           0.4510   -3.9330   -4.0630 O.2     1  UNL1       -0.2673
     25 N           0.5970   -2.4620   -2.2680 N.ar    1  UNL1       -0.2740
     26 C           1.0290   -3.4950   -1.3910 C.ar    1  UNL1        0.0866
     27 C           2.3900   -3.8380   -1.3090 C.ar    1  UNL1        0.0663
     28 CL          3.6010   -2.9850   -2.2020 Cl      1  UNL1       -0.0814
     29 C           2.8090   -4.8760   -0.4720 C.ar    1  UNL1       -0.0413
     30 C           1.8770   -5.5890    0.2820 C.ar    1  UNL1       -0.0589
     31 C           0.5230   -5.2660    0.2000 C.ar    1  UNL1       -0.0413
     32 C           0.0970   -4.2290   -0.6350 C.ar    1  UNL1        0.0663
     33 CL         -1.5990   -3.8840   -0.6890 Cl      1  UNL1       -0.0814
     34 C           0.4410   -1.1340   -1.7560 C.ar    1  UNL1        0.0613
     35 C           0.7150   -0.8150   -0.4160 C.ar    1  UNL1        0.0046
     36 H          -4.2800   -2.8780    2.7260 H       1  UNL1        0.0249
     37 H          -4.7130   -1.2940    3.3850 H       1  UNL1        0.0249
     38 H          -3.9900   -1.4060    1.7780 H       1  UNL1        0.0249
     39 H          -2.6060   -2.1040    4.4340 H       1  UNL1        0.0551
     40 H          -1.6170   -2.1350    1.6620 H       1  UNL1        0.1189
     41 H          -1.9080   -3.4420    2.5680 H       1  UNL1        0.1189
     42 H          -0.2560   -0.9430    3.4250 H       1  UNL1        0.1488
     43 H          -0.6630    1.9280    4.1180 H       1  UNL1        0.0495
     44 H           0.8900    1.0620    3.9720 H       1  UNL1        0.0495
     45 H          -1.0240    1.6520    1.6400 H       1  UNL1        0.0712
     46 H           0.4500    2.5960    2.0090 H       1  UNL1        0.0712
     47 H          -0.0060    2.5040   -0.4280 H       1  UNL1        0.0660
     48 H           1.3990    2.8610   -3.5800 H       1  UNL1        0.0624
     49 H           0.7140    4.7420   -5.0220 H       1  UNL1        0.0618
     50 H          -1.6880    5.3060   -5.2850 H       1  UNL1        0.0618
     51 H          -3.4070    3.9830   -4.0970 H       1  UNL1        0.0632
     52 H          -0.6230    0.3050   -4.7110 H       1  UNL1        0.0626
     53 H          -0.3240   -1.9850   -5.5010 H       1  UNL1        0.0672
     54 H           3.8630   -5.1370   -0.4070 H       1  UNL1        0.0633
     55 H           2.2060   -6.3990    0.9290 H       1  UNL1        0.0618
     56 H          -0.1980   -5.8330    0.7850 H       1  UNL1        0.0633
     57 H           1.0690   -1.5620    0.2880 H       1  UNL1        0.0675
@<TRIPOS>BOND
     1     1     2    1
     2     1    36    1
     3     1    37    1
     4     1    38    1
     5     2     3    1
     6     2     4    1
     7     2    39    1
     8     3    40    1
     9     3    41    1
    10     4     5    2
    11     4     6   am
    12     6     7    1
    13     6    42    1
    14     7     8    1
    15     7    43    1
    16     7    44    1
    17     8     9    1
    18     8    45    1
    19     8    46    1
    20     9    10    1
    21    10    11   ar
    22    10    35   ar
    23    11    12   ar
    24    11    47    1
    25    12    13    1
    26    12    20   ar
    27    13    14   ar
    28    13    18   ar
    29    14    15   ar
    30    14    48    1
    31    15    16   ar
    32    15    49    1
    33    16    17   ar
    34    16    50    1
    35    17    18   ar
    36    17    51    1
    37    18    19    1
    38    20    21   ar
    39    20    34   ar
    40    21    22   ar
    41    21    52    1
    42    22    23   ar
    43    22    53    1
    44    23    24    2
    45    23    25   ar
    46    25    26    1
    47    25    34   ar
    48    26    27   ar
    49    26    32   ar
    50    27    28    1
    51    27    29   ar
    52    29    30   ar
    53    29    54    1
    54    30    31   ar
    55    30    55    1
    56    31    32   ar
    57    31    56    1
    58    32    33    1
    59    34    35   ar
    60    35    57    1
@<TRIPOS>MOLECULE
AD3CC00117668-I00-C01
 57 60 0 0 0
SMALL
GASTEIGER

@<TRIPOS>ATOM
      1 C          -3.9680   -1.8300    2.7880 C.3     1  UNL1       -0.0414
      2 C          -2.5850   -1.7050    3.4130 C.3     1  UNL1        0.0794
      3 N          -1.5850   -2.4750    2.6280 N.3     1  UNL1       -0.3202
      4 C          -2.1370   -0.2300    3.5100 C.2     1  UNL1        0.2297
      5 O          -2.9020    0.7270    3.4630 O.2     1  UNL1       -0.2741
      6 N          -0.7720   -0.1050    3.6880 N.am    1  UNL1       -0.3108
      7 C          -0.1100    1.1780    3.5420 C.3     1  UNL1        0.0458
      8 C          -0.0180    1.6080    2.0750 C.3     1  UNL1        0.1050
      9 O           0.8160    0.6600    1.3910 O.3     1  UNL1       -0.4903
     10 C           0.5260    0.4780    0.0680 C.ar    1  UNL1        0.1232
     11 C           0.1070    1.4860   -0.7920 C.ar    1  UNL1       -0.0115
     12 C          -0.1700    1.2100   -2.1440 C.ar    1  UNL1       -0.0039
     13 C          -0.6190    2.3240   -3.0000 C.ar    1  UNL1        0.0012
     14 C           0.3400    3.0940   -3.6830 C.ar    1  UNL1       -0.0526
     15 C          -0.0420    4.1590   -4.5010 C.ar    1  UNL1       -0.0611
     16 C          -1.3900    4.4760   -4.6490 C.ar    1  UNL1       -0.0603
     17 C          -2.3570    3.7290   -3.9780 C.ar    1  UNL1       -0.0428
     18 C          -1.9770    2.6610   -3.1590 C.ar    1  UNL1        0.0487
     19 CL         -3.2310    1.7760   -2.3600 Cl      1  UNL1       -0.0829
     20 C          -0.0040   -0.1140   -2.6260 C.ar    1  UNL1        0.0071
     21 C          -0.2800   -0.4630   -4.0260 C.ar    1  UNL1       -0.0469
     22 C          -0.1220   -1.7110   -4.4730 C.ar    1  UNL1        0.0039
     23 C           0.3350   -2.8040   -3.5880 C.ar    1  UNL1        0.2563
     24 O           0.4510   -3.9330   -4.0630 O.2     1  UNL1       -0.2673
     25 N           0.5970   -2.4620   -2.2680 N.ar    1  UNL1       -0.2740
     26 C           1.0290   -3.4950   -1.3910 C.ar    1  UNL1        0.0866
     27 C           2.3900   -3.8380   -1.3090 C.ar    1  UNL1        0.0663
     28 CL          3.6010   -2.9850   -2.2020 Cl      1  UNL1       -0.0814
     29 C           2.8090   -4.8760   -0.4720 C.ar    1  UNL1       -0.0413
     30 C           1.8770   -5.5890    0.2820 C.ar    1  UNL1       -0.0589
     31 C           0.5230   -5.2660    0.2000 C.ar    1  UNL1       -0.0413
     32 C           0.0970   -4.2290   -0.6350 C.ar    1  UNL1        0.0663
     33 CL         -1.5990   -3.8840   -0.6890 Cl      1  UNL1       -0.0814
     34 C           0.4410   -1.1340   -1.7560 C.ar    1  UNL1        0.0613
     35 C           0.7150   -0.8150   -0.4160 C.ar    1  UNL1        0.0046
     36 H          -4.2800   -2.8780    2.7260 H       1  UNL1        0.0249
     37 H          -4.7130   -1.2940    3.3850 H       1  UNL1        0.0249
     38 H          -3.9900   -1.4060    1.7780 H       1  UNL1        0.0249
     39 H          -2.6060   -2.1040    4.4340 H       1  UNL1        0.0551
     40 H          -1.6170   -2.1350    1.6620 H       1  UNL1        0.1189
     41 H          -1.9080   -3.4420    2.5680 H       1  UNL1        0.1189
     42 H          -0.2560   -0.9430    3.4250 H       1  UNL1        0.1488
     43 H          -0.6630    1.9280    4.1180 H       1  UNL1        0.0495
     44 H           0.8900    1.0620    3.9720 H       1  UNL1        0.0495
     45 H          -1.0240    1.6520    1.6400 H       1  UNL1        0.0712
     46 H           0.4500    2.5960    2.0090 H       1  UNL1        0.0712
     47 H          -0.0060    2.5040   -0.4280 H       1  UNL1        0.0660
     48 H           1.3990    2.8610   -3.5800 H       1  UNL1        0.0624
     49 H           0.7140    4.7420   -5.0220 H       1  UNL1        0.0618
     50 H          -1.6880    5.3060   -5.2850 H       1  UNL1        0.0618
     51 H          -3.4070    3.9830   -4.0970 H       1  UNL1        0.0632
     52 H          -0.6230    0.3050   -4.7110 H       1  UNL1        0.0626
     53 H          -0.3240   -1.9850   -5.5010 H       1  UNL1        0.0672
     54 H           3.8630   -5.1370   -0.4070 H       1  UNL1        0.0633
     55 H           2.2060   -6.3990    0.9290 H       1  UNL1        0.0618
     56 H          -0.1980   -5.8330    0.7850 H       1  UNL1        0.0633
     57 H           1.0690   -1.5620    0.2880 H       1  UNL1        0.0675
@<TRIPOS>BOND
     1     1     2    1
     2     1    36    1
     3     1    37    1
     4     1    38    1
     5     2     3    1
     6     2     4    1
     7     2    39    1
     8     3    40    1
     9     3    41    1
    10     4     5    2
    11     4     6   am
    12     6     7    1
    13     6    42    1
    14     7     8    1
    15     7    43    1
    16     7    44    1
    17     8     9    1
    18     8    45    1
    19     8    46    1
    20     9    10    1
    21    10    11   ar
    22    10    35   ar
    23    11    12   ar
    24    11    47    1
    25    12    13    1
    26    12    20   ar
    27    13    14   ar
    28    13    18   ar
    29    14    15   ar
    30    14    48    1
    31    15    16   ar
    32    15    49    1
    33    16    17   ar
    34    16    50    1
    35    17    18   ar
    36    17    51    1
    37    18    19    1
    38    20    21   ar
    39    20    34   ar
    40    21    22   ar
    41    21    52    1
    42    22    23   ar
    43    22    53    1
    44    23    24    2
    45    23    25   ar
    46    25    26    1
    47    25    34   ar
    48    26    27   ar
    49    26    32   ar
    50    27    28    1
    51    27    29   ar
    52    29    30   ar
    53    29    54    1
    54    30    31   ar
    55    30    55    1
    56    31    32   ar
    57    31    56    1
    58    32    33    1
    59    34    35   ar
    60    35    57    1
@<TRIPOS>MOLECULE
AD3CC00117692-I01-C00
 58 61 0 0 0
SMALL
GASTEIGER

@<TRIPOS>ATOM
      1 N           0.4840   -4.1490   -0.1280 N.3     1  UNL1       -0.3181
      2 CA         -0.6630   -5.0310    0.2510 C.3     1  UNL1        0.1056
      3 C          -1.5270   -5.3830   -0.9680 C.3     1  UNL1        0.0678
      4 O          -0.6960   -5.8990   -2.0140 O.3     1  UNL1       -0.3930
      5 C          -1.5090   -4.3480    1.3380 C.2     1  UNL1        0.2322
      6 O          -2.7350   -4.3930    1.3820 O.2     1  UNL1       -0.2740
      7 N          -0.7340   -3.6980    2.2800 N.am    1  UNL1       -0.3107
      8 C          -1.3170   -2.7850    3.2470 C.3     1  UNL1        0.0458
      9 C          -1.7860   -1.4800    2.5980 C.3     1  UNL1        0.1050
     10 O          -0.6520   -0.8590    1.9820 O.3     1  UNL1       -0.4903
     11 C          -0.8870    0.1820    1.1250 C.ar    1  UNL1        0.1232
     12 C          -2.0310    0.8660    0.9530 C.ar    1  UNL1       -0.0115
     13 C          -2.1280    1.9490   -0.0320 C.ar    1  UNL1       -0.0039
     14 C          -3.4150    2.6790   -0.1600 C.ar    1  UNL1        0.0012
     15 C          -4.3600    2.2050   -1.0850 C.ar    1  UNL1       -0.0526
     16 C          -5.5890    2.8500   -1.2390 C.ar    1  UNL1       -0.0611
     17 C          -5.8900    3.9710   -0.4670 C.ar    1  UNL1       -0.0603
     18 C          -4.9640    4.4470    0.4620 C.ar    1  UNL1       -0.0428
     19 C          -3.7320    3.8040    0.6200 C.ar    1  UNL1        0.0487
     20 CL         -2.6330    4.4440    1.7910 Cl      1  UNL1       -0.0829
     21 C          -1.0470    2.2530   -0.8080 C.ar    1  UNL1        0.0071
     22 C          -1.0710    3.3270   -1.7900 C.ar    1  UNL1       -0.0469
     23 C          -0.0050    3.5840   -2.5520 C.ar    1  UNL1        0.0039
     24 C           1.2400    2.7890   -2.4500 C.ar    1  UNL1        0.2563
     25 O           2.1510    3.0540   -3.2370 O.2     1  UNL1       -0.2673
     26 N           1.2870    1.7800   -1.4780 N.ar    1  UNL1       -0.2740
     27 C           2.5150    1.0370   -1.4450 C.ar    1  UNL1        0.0866
     28 C           3.6600    1.5810   -0.8340 C.ar    1  UNL1        0.0663
     29 CL          3.6280    3.1130   -0.0270 Cl      1  UNL1       -0.0814
     30 C           4.8640    0.8680   -0.8210 C.ar    1  UNL1       -0.0413
     31 C           4.9400   -0.3910   -1.4160 C.ar    1  UNL1       -0.0589
     32 C           3.8130   -0.9410   -2.0270 C.ar    1  UNL1       -0.0413
     33 C           2.6070   -0.2330   -2.0470 C.ar    1  UNL1        0.0663
     34 CL          1.2610   -0.9720   -2.8490 Cl      1  UNL1       -0.0814
     35 C           0.2050    1.4740   -0.6370 C.ar    1  UNL1        0.0613
     36 C           0.2610    0.5150    0.3120 C.ar    1  UNL1        0.0046
     37 H1          0.9460   -4.6370   -0.9050 H       1  UNL1        0.1190
     38 H2          0.1000   -3.3120   -0.5740 H       1  UNL1        0.1190
     39 HA         -0.2420   -5.9490    0.6770 H       1  UNL1        0.0577
     40 H1         -2.2710   -6.1440   -0.7080 H       1  UNL1        0.0577
     41 H2         -2.0510   -4.5010   -1.3530 H       1  UNL1        0.0577
     42 H          -1.2910   -6.1430   -2.7450 H       1  UNL1        0.2095
     43 H           0.2140   -3.5050    1.9530 H       1  UNL1        0.1488
     44 H          -2.1590   -3.2830    3.7400 H       1  UNL1        0.0495
     45 H          -0.5370   -2.5820    3.9890 H       1  UNL1        0.0495
     46 H          -2.5570   -1.6960    1.8480 H       1  UNL1        0.0712
     47 H          -2.1950   -0.8130    3.3650 H       1  UNL1        0.0712
     48 H          -2.9200    0.6570    1.5390 H       1  UNL1        0.0660
     49 H          -4.1400    1.3290   -1.6940 H       1  UNL1        0.0624
     50 H          -6.3120    2.4770   -1.9610 H       1  UNL1        0.0618
     51 H          -6.8470    4.4730   -0.5870 H       1  UNL1        0.0618
     52 H          -5.2090    5.3200    1.0630 H       1  UNL1        0.0632
     53 H          -1.9550    3.9440   -1.9100 H       1  UNL1        0.0626
     54 H          -0.0010    4.3800   -3.2860 H       1  UNL1        0.0672
     55 H           5.7460    1.2910   -0.3440 H       1  UNL1        0.0633
     56 H           5.8780   -0.9420   -1.4070 H       1  UNL1        0.0618
     57 H           3.8830   -1.9210   -2.4960 H       1  UNL1        0.0633
     58 H           1.1540   -0.0710    0.5010 H       1  UNL1        0.0675
@<TRIPOS>BOND
     1     1     2    1
     2     1    37    1
     3     1    38    1
     4     2     3    1
     5     2     5    1
     6     2    39    1
     7     3     4    1
     8     3    40    1
     9     3    41    1
    10     4    42    1
    11     5     6    2
    12     5     7   am
    13     7     8    1
    14     7    43    1
    15     8     9    1
    16     8    44    1
    17     8    45    1
    18     9    10    1
    19     9    46    1
    20     9    47    1
    21    10    11    1
    22    11    12   ar
    23    11    36   ar
    24    12    13   ar
    25    12    48    1
    26    13    14    1
    27    13    21   ar
    28    14    15   ar
    29    14    19   ar
    30    15    16   ar
    31    15    49    1
    32    16    17   ar
    33    16    50    1
    34    17    18   ar
    35    17    51    1
    36    18    19   ar
    37    18    52    1
    38    19    20    1
    39    21    22   ar
    40    21    35   ar
    41    22    23   ar
    42    22    53    1
    43    23    24   ar
    44    23    54    1
    45    24    25    2
    46    24    26   ar
    47    26    27    1
    48    26    35   ar
    49    27    28   ar
    50    27    33   ar
    51    28    29    1
    52    28    30   ar
    53    30    31   ar
    54    30    55    1
    55    31    32   ar
    56    31    56    1
    57    32    33   ar
    58    32    57    1
    59    33    34    1
    60    35    36   ar
    61    36    58    1
@<TRIPOS>MOLECULE
AD3CC00117707-I00-C02
 61 65 0 0 0
SMALL
GASTEIGER

@<TRIPOS>ATOM
      1 O           1.4300    2.6670    2.5600 O.2     1  UNL1       -0.2741
      2 C           1.1810    3.0980    1.4390 C.2     1  UNL1        0.2302
      3 N           1.9770    2.8710    0.3380 N.am    1  UNL1       -0.3108
      4 C           3.1330    1.9990    0.3780 C.3     1  UNL1        0.0458
      5 C           2.7730    0.5130    0.3470 C.3     1  UNL1        0.1050
      6 O           2.1840    0.1930   -0.9180 O.3     1  UNL1       -0.4903
      7 C           0.9160   -0.3100   -0.9560 C.ar    1  UNL1        0.1232
      8 C           0.5950   -0.9680   -2.1410 C.ar    1  UNL1       -0.0115
      9 C          -0.6730   -1.5360   -2.3490 C.ar    1  UNL1       -0.0039
     10 C          -0.9290   -2.2110   -3.6350 C.ar    1  UNL1        0.0012
     11 C          -0.6070   -3.5740   -3.7690 C.ar    1  UNL1       -0.0526
     12 C          -0.8310   -4.2530   -4.9690 C.ar    1  UNL1       -0.0611
     13 C          -1.3790   -3.5800   -6.0580 C.ar    1  UNL1       -0.0603
     14 C          -1.7030   -2.2280   -5.9490 C.ar    1  UNL1       -0.0428
     15 C          -1.4790   -1.5460   -4.7480 C.ar    1  UNL1        0.0487
     16 CL         -1.9080    0.1290   -4.6860 Cl      1  UNL1       -0.0829
     17 C          -1.6390   -1.4420   -1.3190 C.ar    1  UNL1        0.0071
     18 C          -2.9830   -2.0140   -1.4760 C.ar    1  UNL1       -0.0469
     19 C          -3.8910   -1.9230   -0.5010 C.ar    1  UNL1        0.0039
     20 C          -3.5900   -1.2620    0.7850 C.ar    1  UNL1        0.2563
     21 O          -4.4610   -1.2550    1.6540 O.2     1  UNL1       -0.2673
     22 N          -2.3220   -0.7080    0.9170 N.ar    1  UNL1       -0.2740
     23 C          -1.9940   -0.1080    2.1680 C.ar    1  UNL1        0.0866
     24 C          -2.4990    1.1630    2.4990 C.ar    1  UNL1        0.0663
     25 CL         -3.4370    2.0930    1.3790 Cl      1  UNL1       -0.0814
     26 C          -2.2110    1.7420    3.7390 C.ar    1  UNL1       -0.0413
     27 C          -1.4230    1.0600    4.6640 C.ar    1  UNL1       -0.0589
     28 C          -0.9300   -0.2070    4.3580 C.ar    1  UNL1       -0.0413
     29 C          -1.2190   -0.7950    3.1230 C.ar    1  UNL1        0.0663
     30 CL         -0.6120   -2.3910    2.8380 Cl      1  UNL1       -0.0814
     31 C          -1.3250   -0.7770   -0.1130 C.ar    1  UNL1        0.0613
     32 C          -0.0530   -0.1890    0.0360 C.ar    1  UNL1        0.0046
     33 C          -0.0350    3.9860    1.1360 C.3     1  UNL1        0.0848
     34 C           0.3450    5.4640    1.0530 C.3     1  UNL1       -0.0279
     35 C          -0.0600    5.8990   -0.3470 C.3     1  UNL1       -0.0386
     36 C          -1.1180    4.8910   -0.7410 C.3     1  UNL1       -0.0034
     37 N          -0.5830    3.6440   -0.2020 N.3     1  UNL1       -0.3057
     38 H           1.4980    3.0130   -0.5510 H       1  UNL1        0.1488
     39 H           3.7410    2.2580   -0.4950 H       1  UNL1        0.0495
     40 H           3.7050    2.2220    1.2840 H       1  UNL1        0.0495
     41 H           2.1790    0.2170    1.2160 H       1  UNL1        0.0712
     42 H           3.7020   -0.0650    0.4080 H       1  UNL1        0.0712
     43 H           1.3510   -1.0360   -2.9220 H       1  UNL1        0.0660
     44 H          -0.1760   -4.1160   -2.9280 H       1  UNL1        0.0624
     45 H          -0.5760   -5.3060   -5.0520 H       1  UNL1        0.0618
     46 H          -1.5530   -4.1070   -6.9930 H       1  UNL1        0.0618
     47 H          -2.1290   -1.7090   -6.8040 H       1  UNL1        0.0632
     48 H          -3.2480   -2.5130   -2.4020 H       1  UNL1        0.0626
     49 H          -4.8870   -2.3370   -0.6020 H       1  UNL1        0.0672
     50 H          -2.5930    2.7290    3.9870 H       1  UNL1        0.0633
     51 H          -1.1930    1.5160    5.6250 H       1  UNL1        0.0618
     52 H          -0.3250   -0.7360    5.0910 H       1  UNL1        0.0633
     53 H           0.1720    0.3800    0.9290 H       1  UNL1        0.0675
     54 H          -0.7930    3.8240    1.9080 H       1  UNL1        0.0556
     55 H          -0.2340    6.0320    1.7920 H       1  UNL1        0.0285
     56 H           1.4060    5.6620    1.2360 H       1  UNL1        0.0285
     57 H           0.8020    5.8310   -1.0220 H       1  UNL1        0.0278
     58 H          -0.4310    6.9280   -0.3700 H       1  UNL1        0.0278
     59 H          -1.2540    4.8360   -1.8250 H       1  UNL1        0.0424
     60 H          -2.0820    5.1290   -0.2760 H       1  UNL1        0.0424
     61 H          -1.3280    2.9510   -0.1040 H       1  UNL1        0.1226
@<TRIPOS>BOND
     1     1     2    2
     2     2     3   am
     3     2    33    1
     4     3     4    1
     5     3    38    1
     6     4     5    1
     7     4    39    1
     8     4    40    1
     9     5     6    1
    10     5    41    1
    11     5    42    1
    12     6     7    1
    13     7     8   ar
    14     7    32   ar
    15     8     9   ar
    16     8    43    1
    17     9    10    1
    18     9    17   ar
    19    10    11   ar
    20    10    15   ar
    21    11    12   ar
    22    11    44    1
    23    12    13   ar
    24    12    45    1
    25    13    14   ar
    26    13    46    1
    27    14    15   ar
    28    14    47    1
    29    15    16    1
    30    17    18   ar
    31    17    31   ar
    32    18    19   ar
    33    18    48    1
    34    19    20   ar
    35    19    49    1
    36    20    21    2
    37    20    22   ar
    38    22    23    1
    39    22    31   ar
    40    23    24   ar
    41    23    29   ar
    42    24    25    1
    43    24    26   ar
    44    26    27   ar
    45    26    50    1
    46    27    28   ar
    47    27    51    1
    48    28    29   ar
    49    28    52    1
    50    29    30    1
    51    31    32   ar
    52    32    53    1
    53    33    34    1
    54    33    37    1
    55    33    54    1
    56    34    35    1
    57    34    55    1
    58    34    56    1
    59    35    36    1
    60    35    57    1
    61    35    58    1
    62    36    37    1
    63    36    59    1
    64    36    60    1
    65    37    61    1
@<TRIPOS>MOLECULE
AD3CC00117714-I00-C02
 61 65 0 0 0
SMALL
GASTEIGER

@<TRIPOS>ATOM
      1 O          -3.9070   -0.2190    0.5930 O.2     1  UNL1       -0.2741
      2 C          -3.0010    0.5410    0.2590 C.2     1  UNL1        0.2302
      3 N          -2.5610    0.6710   -1.0420 N.am    1  UNL1       -0.3108
      4 C          -3.0720   -0.1680   -2.1070 C.3     1  UNL1        0.0458
      5 C          -2.5480   -1.6110   -2.0600 C.3     1  UNL1        0.1050
      6 O          -1.2810   -1.7400   -2.7320 O.3     1  UNL1       -0.4903
      7 C          -0.2000   -1.2980   -2.0240 C.ar    1  UNL1        0.1232
      8 C           0.6540   -0.4260   -2.6910 C.ar    1  UNL1       -0.0115
      9 C           1.7990    0.0880   -2.0630 C.ar    1  UNL1       -0.0039
     10 C           2.6590    1.0070   -2.8320 C.ar    1  UNL1        0.0012
     11 C           3.8150    0.4980   -3.4560 C.ar    1  UNL1       -0.0526
     12 C           4.6570    1.3250   -4.2020 C.ar    1  UNL1       -0.0611
     13 C           4.3580    2.6770   -4.3420 C.ar    1  UNL1       -0.0603
     14 C           3.2150    3.2030   -3.7380 C.ar    1  UNL1       -0.0428
     15 C           2.3680    2.3760   -2.9920 C.ar    1  UNL1        0.0487
     16 CL          0.9630    3.1020   -2.2830 Cl      1  UNL1       -0.0829
     17 C           2.0900   -0.3210   -0.7380 C.ar    1  UNL1        0.0071
     18 C           3.2440    0.2210   -0.0070 C.ar    1  UNL1       -0.0469
     19 C           3.5390   -0.1970    1.2270 C.ar    1  UNL1        0.0039
     20 C           2.7380   -1.2340    1.9110 C.ar    1  UNL1        0.2563
     21 O           3.1060   -1.6160    3.0210 O.2     1  UNL1       -0.2673
     22 N           1.6210   -1.7060    1.2320 N.ar    1  UNL1       -0.2740
     23 C           0.8810   -2.7640    1.8380 C.ar    1  UNL1        0.0866
     24 C           1.0830   -4.1050    1.4500 C.ar    1  UNL1        0.0663
     25 CL          2.2230   -4.5440    0.2210 Cl      1  UNL1       -0.0814
     26 C           0.3750   -5.1400    2.0720 C.ar    1  UNL1       -0.0413
     27 C          -0.5310   -4.8540    3.0930 C.ar    1  UNL1       -0.0589
     28 C          -0.7250   -3.5330    3.5020 C.ar    1  UNL1       -0.0413
     29 C          -0.0180   -2.4940    2.8870 C.ar    1  UNL1        0.0663
     30 CL         -0.3250   -0.8810    3.4390 Cl      1  UNL1       -0.0814
     31 C           1.2620   -1.2650   -0.0850 C.ar    1  UNL1        0.0613
     32 C           0.1100   -1.7350   -0.7410 C.ar    1  UNL1        0.0046
     33 C          -2.2940    1.4740    1.2500 C.3     1  UNL1        0.0848
     34 C          -2.8080    2.9120    1.1570 C.3     1  UNL1       -0.0279
     35 C          -1.5720    3.7580    0.8730 C.3     1  UNL1       -0.0386
     36 C          -0.4250    2.8870    1.3500 C.3     1  UNL1       -0.0034
     37 N          -0.8440    1.5540    0.9260 N.3     1  UNL1       -0.3057
     38 H          -1.6440    1.1100   -1.1370 H       1  UNL1        0.1488
     39 H          -2.8020    0.3170   -3.0540 H       1  UNL1        0.0495
     40 H          -4.1640   -0.1800   -2.0140 H       1  UNL1        0.0495
     41 H          -3.2380   -2.2380   -2.6370 H       1  UNL1        0.0712
     42 H          -2.5340   -2.0260   -1.0460 H       1  UNL1        0.0712
     43 H           0.4150   -0.1340   -3.7120 H       1  UNL1        0.0660
     44 H           4.0630   -0.5590   -3.3620 H       1  UNL1        0.0624
     45 H           5.5420    0.9110   -4.6790 H       1  UNL1        0.0618
     46 H           5.0120    3.3220   -4.9250 H       1  UNL1        0.0618
     47 H           2.9850    4.2590   -3.8550 H       1  UNL1        0.0632
     48 H           3.8610    0.9840   -0.4710 H       1  UNL1        0.0626
     49 H           4.3850    0.1950    1.7790 H       1  UNL1        0.0672
     50 H           0.5350   -6.1750    1.7710 H       1  UNL1        0.0633
     51 H          -1.0770   -5.6600    3.5800 H       1  UNL1        0.0618
     52 H          -1.4280   -3.3180    4.3040 H       1  UNL1        0.0633
     53 H          -0.5460   -2.4590   -0.2700 H       1  UNL1        0.0675
     54 H          -2.4320    1.0770    2.2630 H       1  UNL1        0.0556
     55 H          -3.2430    3.2120    2.1180 H       1  UNL1        0.0285
     56 H          -3.5720    3.0640    0.3870 H       1  UNL1        0.0285
     57 H          -1.4870    3.9450   -0.2050 H       1  UNL1        0.0278
     58 H          -1.6080    4.7250    1.3830 H       1  UNL1        0.0278
     59 H           0.5310    3.1760    0.9000 H       1  UNL1        0.0424
     60 H          -0.3260    2.9310    2.4410 H       1  UNL1        0.0424
     61 H          -0.3410    0.8360    1.4550 H       1  UNL1        0.1226
@<TRIPOS>BOND
     1     1     2    2
     2     2     3   am
     3     2    33    1
     4     3     4    1
     5     3    38    1
     6     4     5    1
     7     4    39    1
     8     4    40    1
     9     5     6    1
    10     5    41    1
    11     5    42    1
    12     6     7    1
    13     7     8   ar
    14     7    32   ar
    15     8     9   ar
    16     8    43    1
    17     9    10    1
    18     9    17   ar
    19    10    11   ar
    20    10    15   ar
    21    11    12   ar
    22    11    44    1
    23    12    13   ar
    24    12    45    1
    25    13    14   ar
    26    13    46    1
    27    14    15   ar
    28    14    47    1
    29    15    16    1
    30    17    18   ar
    31    17    31   ar
    32    18    19   ar
    33    18    48    1
    34    19    20   ar
    35    19    49    1
    36    20    21    2
    37    20    22   ar
    38    22    23    1
    39    22    31   ar
    40    23    24   ar
    41    23    29   ar
    42    24    25    1
    43    24    26   ar
    44    26    27   ar
    45    26    50    1
    46    27    28   ar
    47    27    51    1
    48    28    29   ar
    49    28    52    1
    50    29    30    1
    51    31    32   ar
    52    32    53    1
    53    33    34    1
    54    33    37    1
    55    33    54    1
    56    34    35    1
    57    34    55    1
    58    34    56    1
    59    35    36    1
    60    35    57    1
    61    35    58    1
    62    36    37    1
    63    36    59    1
    64    36    60    1
    65    37    61    1
@<TRIPOS>MOLECULE
AD3CC00117743-I00-C00
 43 46 0 0 0
SMALL
GASTEIGER

@<TRIPOS>ATOM
      1 C          -0.6200   -1.2580   -4.5650 C.3     1  UNL1        0.0788
      2 O          -0.9510   -1.6830   -3.2480 O.3     1  UNL1       -0.4950
      3 C          -0.7710   -0.7770   -2.2390 C.ar    1  UNL1        0.1227
      4 C          -0.2300    0.4970   -2.3700 C.ar    1  UNL1       -0.0115
      5 C          -0.0970    1.3480   -1.2550 C.ar    1  UNL1       -0.0038
      6 C           0.4880    2.6850   -1.4710 C.ar    1  UNL1        0.0012
      7 C           1.8780    2.8550   -1.3330 C.ar    1  UNL1       -0.0526
      8 C           2.4740    4.1030   -1.5290 C.ar    1  UNL1       -0.0611
      9 C           1.6920    5.2030   -1.8700 C.ar    1  UNL1       -0.0603
     10 C           0.3130    5.0560   -2.0170 C.ar    1  UNL1       -0.0428
     11 C          -0.2860    3.8080   -1.8210 C.ar    1  UNL1        0.0487
     12 CL         -2.0020    3.7010   -2.0220 Cl      1  UNL1       -0.0829
     13 C          -0.5190    0.8900    0.0180 C.ar    1  UNL1        0.0105
     14 C          -0.4070    1.7390    1.2140 C.ar    1  UNL1       -0.0050
     15 C          -0.8030    1.3070    2.4120 C.ar    1  UNL1        0.1828
     16 O          -0.6940    2.1120    3.5330 O.3     1  UNL1       -0.5021
     17 C          -1.3750   -0.0590    2.5910 C.ar    1  UNL1        0.2979
     18 O          -1.7100   -0.3880    3.7310 O.2     1  UNL1       -0.2633
     19 N          -1.4760   -0.8480    1.4560 N.ar    1  UNL1       -0.2710
     20 C          -2.0130   -2.1560    1.6040 C.ar    1  UNL1        0.0867
     21 C          -3.4020   -2.3690    1.5440 C.ar    1  UNL1        0.0663
     22 CL         -4.5090   -1.0780    1.2260 Cl      1  UNL1       -0.0814
     23 C          -3.9310   -3.6510    1.7250 C.ar    1  UNL1       -0.0413
     24 C          -3.0830   -4.7290    1.9790 C.ar    1  UNL1       -0.0589
     25 C          -1.7050   -4.5280    2.0560 C.ar    1  UNL1       -0.0413
     26 C          -1.1700   -3.2490    1.8760 C.ar    1  UNL1        0.0663
     27 CL          0.5470   -3.0700    1.9900 Cl      1  UNL1       -0.0814
     28 C          -1.0620   -0.4060    0.1580 C.ar    1  UNL1        0.0615
     29 C          -1.1800   -1.2210   -0.9810 C.ar    1  UNL1        0.0046
     30 H          -1.2220   -0.3940   -4.8650 H       1  UNL1        0.0660
     31 H          -0.8530   -2.0800   -5.2490 H       1  UNL1        0.0660
     32 H           0.4500   -1.0450   -4.6520 H       1  UNL1        0.0660
     33 H           0.0980    0.8660   -3.3380 H       1  UNL1        0.0660
     34 H           2.5060    2.0070   -1.0630 H       1  UNL1        0.0624
     35 H           3.5500    4.2150   -1.4120 H       1  UNL1        0.0618
     36 H           2.1550    6.1750   -2.0210 H       1  UNL1        0.0618
     37 H          -0.2910    5.9200   -2.2830 H       1  UNL1        0.0632
     38 H          -0.0000    2.7390    1.1260 H       1  UNL1        0.0662
     39 H          -1.0540    1.5650    4.2650 H       1  UNL1        0.2923
     40 H          -5.0050   -3.8130    1.6730 H       1  UNL1        0.0633
     41 H          -3.4970   -5.7240    2.1240 H       1  UNL1        0.0618
     42 H          -1.0510   -5.3720    2.2630 H       1  UNL1        0.0633
     43 H          -1.5970   -2.2220   -0.9220 H       1  UNL1        0.0675
@<TRIPOS>BOND
     1     1     2    1
     2     1    30    1
     3     1    31    1
     4     1    32    1
     5     2     3    1
     6     3     4   ar
     7     3    29   ar
     8     4     5   ar
     9     4    33    1
    10     5     6    1
    11     5    13   ar
    12     6     7   ar
    13     6    11   ar
    14     7     8   ar
    15     7    34    1
    16     8     9   ar
    17     8    35    1
    18     9    10   ar
    19     9    36    1
    20    10    11   ar
    21    10    37    1
    22    11    12    1
    23    13    14   ar
    24    13    28   ar
    25    14    15   ar
    26    14    38    1
    27    15    16    1
    28    15    17   ar
    29    16    39    1
    30    17    18    2
    31    17    19   ar
    32    19    20    1
    33    19    28   ar
    34    20    21   ar
    35    20    26   ar
    36    21    22    1
    37    21    23   ar
    38    23    24   ar
    39    23    40    1
    40    24    25   ar
    41    24    41    1
    42    25    26   ar
    43    25    42    1
    44    26    27    1
    45    28    29   ar
    46    29    43    1
@<TRIPOS>MOLECULE
AD3CC00117758-I01-C00
 45 48 0 0 0
SMALL
GASTEIGER

@<TRIPOS>ATOM
      1 C           2.0400   -2.6670   -4.0660 C.3     1  UNL1        0.0788
      2 O           0.9040   -2.5990   -3.2110 O.3     1  UNL1       -0.4950
      3 C           0.8890   -1.6000   -2.2770 C.ar    1  UNL1        0.1225
      4 C           1.8480   -0.6040   -2.1280 C.ar    1  UNL1       -0.0118
      5 C           1.7290    0.3720   -1.1200 C.ar    1  UNL1       -0.0080
      6 C           2.7650    1.4150   -1.0290 C.ar    1  UNL1        0.0009
      7 C           2.5680    2.6350   -1.7020 C.ar    1  UNL1       -0.0526
      8 C           3.5240    3.6520   -1.6460 C.ar    1  UNL1       -0.0611
      9 C           4.6960    3.4670   -0.9170 C.ar    1  UNL1       -0.0603
     10 C           4.9130    2.2650   -0.2440 C.ar    1  UNL1       -0.0428
     11 C           3.9570    1.2460   -0.2990 C.ar    1  UNL1        0.0487
     12 CL          4.2900   -0.2150    0.5670 Cl      1  UNL1       -0.0829
     13 C           0.6180    0.3280   -0.2450 C.ar    1  UNL1       -0.0147
     14 C          -0.3750   -0.6600   -0.4100 C.ar    1  UNL1        0.0488
     15 C          -0.2160   -1.6180   -1.4250 C.ar    1  UNL1        0.0021
     16 N          -1.5120   -0.6610    0.4580 N.am    1  UNL1       -0.2350
     17 C          -2.6580   -1.4280    0.0950 C.ar    1  UNL1        0.0779
     18 C          -2.9960   -2.5870    0.8200 C.ar    1  UNL1        0.0641
     19 CL         -1.9950   -3.1900    2.0980 Cl      1  UNL1       -0.0816
     20 C          -4.1360   -3.3260    0.4890 C.ar    1  UNL1       -0.0415
     21 C          -4.9570   -2.9170   -0.5600 C.ar    1  UNL1       -0.0589
     22 C          -4.6430   -1.7640   -1.2790 C.ar    1  UNL1       -0.0415
     23 C          -3.5060   -1.0180   -0.9520 C.ar    1  UNL1        0.0641
     24 CL         -3.2220    0.4340   -1.8520 Cl      1  UNL1       -0.0816
     25 C          -1.5860    0.1200    1.6090 C.2     1  UNL1        0.2532
     26 O          -2.5980    0.2470    2.3060 O.2     1  UNL1       -0.2720
     27 C          -0.2810    0.7860    2.0340 C.3     1  UNL1        0.1357
     28 O          -0.5170    1.8220    2.9880 O.3     1  UNL1       -0.3822
     29 C           0.4200    1.3750    0.8250 C.3     1  UNL1        0.0094
     30 H           2.1090   -1.7760   -4.6980 H       1  UNL1        0.0660
     31 H           2.9600   -2.8170   -3.4910 H       1  UNL1        0.0660
     32 H           1.9120   -3.5320   -4.7230 H       1  UNL1        0.0660
     33 H           2.7110   -0.5570   -2.7860 H       1  UNL1        0.0660
     34 H           1.6570    2.7990   -2.2760 H       1  UNL1        0.0624
     35 H           3.3510    4.5890   -2.1700 H       1  UNL1        0.0618
     36 H           5.4390    4.2590   -0.8710 H       1  UNL1        0.0618
     37 H           5.8290    2.1290    0.3250 H       1  UNL1        0.0632
     38 H          -0.9400   -2.4160   -1.5680 H       1  UNL1        0.0673
     39 H          -4.3880   -4.2260    1.0460 H       1  UNL1        0.0633
     40 H          -5.8450   -3.4920   -0.8140 H       1  UNL1        0.0618
     41 H          -5.2970   -1.4420   -2.0860 H       1  UNL1        0.0633
     42 H           0.3380    0.0220    2.5190 H       1  UNL1        0.0694
     43 H          -1.3070    1.5420    3.4930 H       1  UNL1        0.2104
     44 H          -0.1630    2.2050    0.4050 H       1  UNL1        0.0344
     45 H           1.3710    1.8020    1.1630 H       1  UNL1        0.0344
@<TRIPOS>BOND
     1     1     2    1
     2     1    30    1
     3     1    31    1
     4     1    32    1
     5     2     3    1
     6     3     4   ar
     7     3    15   ar
     8     4     5   ar
     9     4    33    1
    10     5     6    1
    11     5    13   ar
    12     6     7   ar
    13     6    11   ar
    14     7     8   ar
    15     7    34    1
    16     8     9   ar
    17     8    35    1
    18     9    10   ar
    19     9    36    1
    20    10    11   ar
    21    10    37    1
    22    11    12    1
    23    13    14   ar
    24    13    29    1
    25    14    15   ar
    26    14    16    1
    27    15    38    1
    28    16    17    1
    29    16    25   am
    30    17    18   ar
    31    17    23   ar
    32    18    19    1
    33    18    20   ar
    34    20    21   ar
    35    20    39    1
    36    21    22   ar
    37    21    40    1
    38    22    23   ar
    39    22    41    1
    40    23    24    1
    41    25    26    2
    42    25    27    1
    43    27    28    1
    44    27    29    1
    45    27    42    1
    46    28    43    1
    47    29    44    1
    48    29    45    1
@<TRIPOS>MOLECULE
AD3CC00118595-I00-C00
 58 61 0 0 0
SMALL
GASTEIGER

@<TRIPOS>ATOM
      1 C          -2.9380   -2.9870   -0.7970 C.3     1  UNL1       -0.0584
      2 C          -2.7840   -1.4590   -0.7180 C.3     1  UNL1       -0.0197
      3 C          -4.1890   -0.8250   -0.7670 C.3     1  UNL1       -0.0584
      4 C          -2.1330   -1.0850    0.6240 C.3     1  UNL1       -0.0584
      5 C          -1.9720   -0.9080   -1.9210 C.3     1  UNL1        0.0309
      6 N          -0.6200   -1.4040   -2.0610 N.ar    1  UNL1       -0.3145
      7 C          -0.2310   -2.4830   -2.8100 C.ar    1  UNL1        0.0982
      8 N           1.0750   -2.6510   -2.7920 N.ar    1  UNL1       -0.2341
      9 C           1.5510   -1.6180   -2.0250 C.ar    1  UNL1        0.1079
     10 C           2.8520   -1.2670   -1.6570 C.ar    1  UNL1       -0.0306
     11 C           3.0050   -0.1290   -0.8570 C.ar    1  UNL1       -0.0320
     12 C           1.8800    0.6030   -0.4720 C.ar    1  UNL1        0.0917
     13 C           1.9650    1.7770    0.3880 C.ar    1  UNL1        0.0927
     14 N           0.9060    2.1270    1.1970 N.ar    1  UNL1       -0.3397
     15 C           1.2610    3.1980    1.9760 C.ar    1  UNL1        0.1137
     16 C           0.3380    3.8060    3.0080 C.3     1  UNL1        0.0202
     17 C           1.0350    4.9850    3.7130 C.3     1  UNL1       -0.0532
     18 C          -0.0350    2.7540    4.0660 C.3     1  UNL1       -0.0532
     19 C          -0.9400    4.3290    2.3280 C.3     1  UNL1       -0.0532
     20 N           2.4830    3.5850    1.6740 N.ar    1  UNL1       -0.2312
     21 C           2.9100    2.7530    0.6590 C.ar    1  UNL1        0.1011
     22 C           4.2060    2.9430    0.0390 C.ar    1  UNL1        0.0378
     23 C           5.3320    3.1290    0.8550 C.ar    1  UNL1       -0.0470
     24 C           6.5910    3.3300    0.2840 C.ar    1  UNL1       -0.0257
     25 C           6.7200    3.3570   -1.1010 C.ar    1  UNL1        0.1262
     26 F           7.9280    3.5500   -1.6460 F       1  UNL1       -0.2054
     27 C           5.6160    3.1940   -1.9270 C.ar    1  UNL1        0.0095
     28 C           4.3650    2.9950   -1.3510 C.ar    1  UNL1        0.1353
     29 F           3.3090    2.8600   -2.1680 F       1  UNL1       -0.2047
     30 N           0.5970    0.2780   -0.7870 N.ar    1  UNL1       -0.2259
     31 C           0.5120   -0.8210   -1.5610 C.ar    1  UNL1        0.1609
     32 H          -1.9770   -3.4970   -0.6790 H       1  UNL1        0.0235
     33 H          -3.6000   -3.3580   -0.0050 H       1  UNL1        0.0235
     34 H          -3.3680   -3.2920   -1.7580 H       1  UNL1        0.0235
     35 H          -4.7040   -1.0770   -1.7010 H       1  UNL1        0.0235
     36 H          -4.1320    0.2670   -0.7000 H       1  UNL1        0.0235
     37 H          -4.8140   -1.1770    0.0610 H       1  UNL1        0.0235
     38 H          -1.9830   -0.0030    0.7040 H       1  UNL1        0.0235
     39 H          -1.1610   -1.5740    0.7530 H       1  UNL1        0.0235
     40 H          -2.7630   -1.3940    1.4660 H       1  UNL1        0.0235
     41 H          -1.9110    0.1860   -1.8690 H       1  UNL1        0.0498
     42 H          -2.4900   -1.1410   -2.8610 H       1  UNL1        0.0498
     43 H          -0.9350   -3.1090   -3.3430 H       1  UNL1        0.1029
     44 H           3.7010   -1.8580   -1.9800 H       1  UNL1        0.0641
     45 H           4.0000    0.1550   -0.5340 H       1  UNL1        0.0640
     46 H           0.0240    1.6350    1.2110 H       1  UNL1        0.1671
     47 H           0.3820    5.4390    4.4670 H       1  UNL1        0.0239
     48 H           1.9520    4.6610    4.2210 H       1  UNL1        0.0239
     49 H           1.3140    5.7700    3.0000 H       1  UNL1        0.0239
     50 H          -0.6750    3.1850    4.8440 H       1  UNL1        0.0239
     51 H          -0.5780    1.9100    3.6250 H       1  UNL1        0.0239
     52 H           0.8590    2.3480    4.5550 H       1  UNL1        0.0239
     53 H          -1.5030    3.5210    1.8470 H       1  UNL1        0.0239
     54 H          -1.6070    4.8060    3.0550 H       1  UNL1        0.0239
     55 H          -0.7040    5.0690    1.5540 H       1  UNL1        0.0239
     56 H           5.2250    3.1240    1.9380 H       1  UNL1        0.0626
     57 H           7.4660    3.4730    0.9100 H       1  UNL1        0.0646
     58 H           5.7250    3.2290   -3.0040 H       1  UNL1        0.0675
@<TRIPOS>BOND
     1     2     1    1
     2     1    32    1
     3     1    33    1
     4     1    34    1
     5     2     3    1
     6     2     4    1
     7     2     5    1
     8     3    35    1
     9     3    36    1
    10     3    37    1
    11     4    38    1
    12     4    39    1
    13     4    40    1
    14     5     6    1
    15     5    41    1
    16     5    42    1
    17     6     7   ar
    18     6    31   ar
    19     7     8   ar
    20     7    43    1
    21     8     9   ar
    22     9    10   ar
    23     9    31   ar
    24    10    11   ar
    25    10    44    1
    26    11    12   ar
    27    11    45    1
    28    12    13    1
    29    12    30   ar
    30    13    14   ar
    31    13    21   ar
    32    14    15   ar
    33    14    46    1
    34    15    16    1
    35    15    20   ar
    36    16    17    1
    37    16    18    1
    38    16    19    1
    39    17    47    1
    40    17    48    1
    41    17    49    1
    42    18    50    1
    43    18    51    1
    44    18    52    1
    45    19    53    1
    46    19    54    1
    47    19    55    1
    48    20    21   ar
    49    21    22    1
    50    22    23   ar
    51    22    28   ar
    52    23    24   ar
    53    23    56    1
    54    24    25   ar
    55    24    57    1
    56    25    26    1
    57    25    27   ar
    58    27    28   ar
    59    27    58    1
    60    28    29    1
    61    30    31   ar
@<TRIPOS>MOLECULE
AD3CC00118608-I00-C00
 58 61 0 0 0
SMALL
GASTEIGER

@<TRIPOS>ATOM
      1 C           4.2400   -2.4030   -1.4730 C.3     1  UNL1       -0.0584
      2 C           3.4100   -1.2750   -2.1170 C.3     1  UNL1       -0.0197
      3 C           4.0930   -0.8610   -3.4320 C.3     1  UNL1       -0.0584
      4 C           2.0070   -1.8220   -2.4260 C.3     1  UNL1       -0.0584
      5 C           3.3540   -0.0930   -1.1120 C.3     1  UNL1        0.0309
      6 N           2.6290    1.0820   -1.5450 N.ar    1  UNL1       -0.3145
      7 C           3.1650    2.1720   -2.1770 C.ar    1  UNL1        0.0982
      8 N           2.2660    3.1090   -2.3930 N.ar    1  UNL1       -0.2341
      9 C           1.1060    2.6160   -1.8500 C.ar    1  UNL1        0.1079
     10 C          -0.1770    3.1600   -1.7670 C.ar    1  UNL1       -0.0306
     11 C          -1.1570    2.3900   -1.1310 C.ar    1  UNL1       -0.0320
     12 C          -0.8220    1.1410   -0.6050 C.ar    1  UNL1        0.0917
     13 C          -1.8000    0.2800    0.0470 C.ar    1  UNL1        0.0926
     14 N          -1.6770   -1.0910   -0.0080 N.ar    1  UNL1       -0.3397
     15 C          -2.7630   -1.6690    0.5970 C.ar    1  UNL1        0.1137
     16 C          -2.9600   -3.1670    0.6760 C.3     1  UNL1        0.0202
     17 C          -3.0330   -3.7640   -0.7400 C.3     1  UNL1       -0.0532
     18 C          -1.7950   -3.8110    1.4470 C.3     1  UNL1       -0.0532
     19 C          -4.2740   -3.4900    1.4120 C.3     1  UNL1       -0.0532
     20 N          -3.5580   -0.7360    1.0770 N.ar    1  UNL1       -0.2313
     21 C          -2.9570    0.4700    0.7860 C.ar    1  UNL1        0.0983
     22 C          -3.5310    1.7260    1.2310 C.ar    1  UNL1        0.0027
     23 C          -4.9060    1.9480    1.0690 C.ar    1  UNL1       -0.0498
     24 C          -5.4830    3.1450    1.4970 C.ar    1  UNL1       -0.0258
     25 C          -4.6860    4.1120    2.0970 C.ar    1  UNL1        0.1234
     26 F          -5.2390    5.2610    2.5080 F       1  UNL1       -0.2055
     27 C          -3.3250    3.9030    2.2840 C.ar    1  UNL1       -0.0258
     28 C          -2.7460    2.7060    1.8570 C.ar    1  UNL1       -0.0498
     29 N           0.4090    0.5680   -0.6840 N.ar    1  UNL1       -0.2259
     30 C           1.3100    1.3540   -1.3050 C.ar    1  UNL1        0.1609
     31 H           3.7850   -2.7430   -0.5350 H       1  UNL1        0.0235
     32 H           4.3160   -3.2710   -2.1380 H       1  UNL1        0.0235
     33 H           5.2580   -2.0670   -1.2480 H       1  UNL1        0.0235
     34 H           3.5010   -0.1210   -3.9800 H       1  UNL1        0.0235
     35 H           5.0840   -0.4320   -3.2460 H       1  UNL1        0.0235
     36 H           4.2240   -1.7240   -4.0950 H       1  UNL1        0.0235
     37 H           2.0640   -2.7160   -3.0590 H       1  UNL1        0.0235
     38 H           1.3940   -1.0890   -2.9610 H       1  UNL1        0.0235
     39 H           1.4800   -2.1020   -1.5080 H       1  UNL1        0.0235
     40 H           4.3720    0.2400   -0.8670 H       1  UNL1        0.0498
     41 H           2.9040   -0.4200   -0.1660 H       1  UNL1        0.0498
     42 H           4.2090    2.2300   -2.4590 H       1  UNL1        0.1029
     43 H          -0.3970    4.1350   -2.1850 H       1  UNL1        0.0641
     44 H          -2.1710    2.7720   -1.0710 H       1  UNL1        0.0640
     45 H          -0.9070   -1.5710   -0.4540 H       1  UNL1        0.1671
     46 H          -3.2120   -4.8440   -0.7060 H       1  UNL1        0.0239
     47 H          -3.8440   -3.3090   -1.3220 H       1  UNL1        0.0239
     48 H          -2.1020   -3.6030   -1.2960 H       1  UNL1        0.0239
     49 H          -1.9370   -4.8930    1.5470 H       1  UNL1        0.0239
     50 H          -1.7060   -3.3910    2.4560 H       1  UNL1        0.0239
     51 H          -0.8360   -3.6510    0.9410 H       1  UNL1        0.0239
     52 H          -5.1390   -3.0580    0.8960 H       1  UNL1        0.0239
     53 H          -4.2680   -3.0920    2.4340 H       1  UNL1        0.0239
     54 H          -4.4350   -4.5730    1.4790 H       1  UNL1        0.0239
     55 H          -5.5290    1.1810    0.6110 H       1  UNL1        0.0625
     56 H          -6.5460    3.3230    1.3720 H       1  UNL1        0.0646
     57 H          -2.7250    4.6670    2.7680 H       1  UNL1        0.0646
     58 H          -1.6850    2.5380    2.0290 H       1  UNL1        0.0625
@<TRIPOS>BOND
     1     2     1    1
     2     1    31    1
     3     1    32    1
     4     1    33    1
     5     2     3    1
     6     2     4    1
     7     2     5    1
     8     3    34    1
     9     3    35    1
    10     3    36    1
    11     4    37    1
    12     4    38    1
    13     4    39    1
    14     5     6    1
    15     5    40    1
    16     5    41    1
    17     6     7   ar
    18     6    30   ar
    19     7     8   ar
    20     7    42    1
    21     8     9   ar
    22     9    10   ar
    23     9    30   ar
    24    10    11   ar
    25    10    43    1
    26    11    12   ar
    27    11    44    1
    28    12    13    1
    29    12    29   ar
    30    13    14   ar
    31    13    21   ar
    32    14    15   ar
    33    14    45    1
    34    15    16    1
    35    15    20   ar
    36    16    17    1
    37    16    18    1
    38    16    19    1
    39    17    46    1
    40    17    47    1
    41    17    48    1
    42    18    49    1
    43    18    50    1
    44    18    51    1
    45    19    52    1
    46    19    53    1
    47    19    54    1
    48    20    21   ar
    49    21    22    1
    50    22    23   ar
    51    22    28   ar
    52    23    24   ar
    53    23    55    1
    54    24    25   ar
    55    24    56    1
    56    25    26    1
    57    25    27   ar
    58    27    28   ar
    59    27    57    1
    60    28    58    1
    61    29    30   ar
@<TRIPOS>MOLECULE
AD3CC00119719-I00-C00
 52 55 0 0 0
SMALL
GASTEIGER

@<TRIPOS>ATOM
      1 C          -1.4660    4.5020    5.7710 C.3     1  UNL1       -0.0159
      2 C          -2.1350    3.1800    5.9120 C.ar    1  UNL1        0.0756
      3 N          -2.4210    2.3780    4.9080 N.ar    1  UNL1       -0.2476
      4 C          -3.0470    1.2230    5.3820 C.ar    1  UNL1        0.0657
      5 C          -3.4710    0.1670    4.4090 C.3     1  UNL1        0.0548
      6 N          -2.6580    0.2810    3.2220 N.am    1  UNL1       -0.3057
      7 C          -2.7960   -0.6070    2.1850 C.2     1  UNL1        0.2444
      8 O          -3.5380   -1.5830    2.2350 O.2     1  UNL1       -0.2702
      9 C          -2.0140   -0.3170    0.9510 C.ar    1  UNL1        0.0367
     10 C          -0.8420    0.4480    0.9720 C.ar    1  UNL1       -0.0491
     11 C          -0.1390    0.6870   -0.2140 C.ar    1  UNL1       -0.0533
     12 C          -0.5900    0.1640   -1.4360 C.ar    1  UNL1       -0.0175
     13 C           0.1580    0.4090   -2.6770 C.ar    1  UNL1       -0.0115
     14 C           1.3000   -0.3720   -2.9450 C.ar    1  UNL1       -0.0415
     15 C           2.0430   -0.1860   -4.1180 C.ar    1  UNL1        0.0400
     16 C           3.2530   -0.9960   -4.4220 C.2     1  UNL1        0.2444
     17 O           4.1540   -0.5120   -5.0980 O.2     1  UNL1       -0.2702
     18 N           3.2600   -2.2890   -3.9320 N.am    1  UNL1       -0.3085
     19 C           4.3450   -3.1840   -4.1840 C.3     1  UNL1        0.0235
     20 C           5.4220   -3.3800   -3.1540 C.3     1  UNL1       -0.0328
     21 C           4.4510   -4.4870   -3.4410 C.3     1  UNL1       -0.0328
     22 C           1.6650    0.8040   -5.0240 C.ar    1  UNL1       -0.0140
     23 C           0.5410    1.5770   -4.7640 C.ar    1  UNL1        0.1276
     24 F           0.1910    2.5120   -5.6600 F       1  UNL1       -0.2052
     25 C          -0.2240    1.4030   -3.6030 C.ar    1  UNL1       -0.0075
     26 C          -1.4350    2.2690   -3.3820 C.3     1  UNL1       -0.0364
     27 C          -1.7560   -0.6150   -1.4440 C.ar    1  UNL1       -0.0533
     28 C          -2.4610   -0.8560   -0.2610 C.ar    1  UNL1       -0.0491
     29 C          -3.2160    1.1850    6.7530 C.ar    1  UNL1        0.0002
     30 S          -2.5870    2.6090    7.4670 S.2     1  UNL1       -0.0805
     31 H          -2.1100    5.3050    6.1440 H       1  UNL1        0.0298
     32 H          -1.2460    4.7080    4.7180 H       1  UNL1        0.0298
     33 H          -0.5210    4.5210    6.3230 H       1  UNL1        0.0298
     34 H          -3.3490   -0.8370    4.8280 H       1  UNL1        0.0527
     35 H          -4.5200    0.3080    4.1280 H       1  UNL1        0.0527
     36 H          -2.2420    1.1940    3.0760 H       1  UNL1        0.1494
     37 H          -0.4470    0.8480    1.9020 H       1  UNL1        0.0625
     38 H           0.7700    1.2860   -0.1800 H       1  UNL1        0.0624
     39 H           1.6120   -1.1120   -2.2100 H       1  UNL1        0.0631
     40 H           2.4120   -2.6770   -3.5410 H       1  UNL1        0.1493
     41 H           4.6600   -3.1900   -5.2260 H       1  UNL1        0.0498
     42 H           5.3350   -2.8500   -2.2140 H       1  UNL1        0.0284
     43 H           6.4410   -3.4830   -3.5110 H       1  UNL1        0.0284
     44 H           4.8150   -5.3500   -3.9870 H       1  UNL1        0.0284
     45 H           3.7160   -4.7200   -2.6810 H       1  UNL1        0.0284
     46 H           2.2350    0.9780   -5.9330 H       1  UNL1        0.0654
     47 H          -1.4040    2.7300   -2.3890 H       1  UNL1        0.0279
     48 H          -2.3480    1.6740   -3.4800 H       1  UNL1        0.0279
     49 H          -1.4890    3.0860   -4.1090 H       1  UNL1        0.0279
     50 H          -2.1250   -1.0410   -2.3760 H       1  UNL1        0.0624
     51 H          -3.3620   -1.4660   -0.2880 H       1  UNL1        0.0625
     52 H          -3.6680    0.4090    7.3530 H       1  UNL1        0.0712
@<TRIPOS>BOND
     1     1     2    1
     2     1    31    1
     3     1    32    1
     4     1    33    1
     5     2     3   ar
     6     2    30   ar
     7     3     4   ar
     8     4     5    1
     9     4    29   ar
    10     5     6    1
    11     5    34    1
    12     5    35    1
    13     6     7   am
    14     6    36    1
    15     7     8    2
    16     7     9    1
    17     9    10   ar
    18     9    28   ar
    19    10    11   ar
    20    10    37    1
    21    11    12   ar
    22    11    38    1
    23    12    13    1
    24    12    27   ar
    25    13    14   ar
    26    13    25   ar
    27    14    15   ar
    28    14    39    1
    29    15    16    1
    30    15    22   ar
    31    16    17    2
    32    16    18   am
    33    18    19    1
    34    18    40    1
    35    19    20    1
    36    19    21    1
    37    19    41    1
    38    20    21    1
    39    20    42    1
    40    20    43    1
    41    21    44    1
    42    21    45    1
    43    22    23   ar
    44    22    46    1
    45    23    24    1
    46    23    25   ar
    47    25    26    1
    48    26    47    1
    49    26    48    1
    50    26    49    1
    51    27    28   ar
    52    27    50    1
    53    28    51    1
    54    29    30   ar
    55    29    52    1
@<TRIPOS>MOLECULE
AD3CC00119720-I00-C00
 50 52 0 0 0
SMALL
GASTEIGER

@<TRIPOS>ATOM
      1 C          -3.5510    8.1270   -1.7690 C.3     1  UNL1        0.0365
      2 O          -2.6800    7.2300   -2.4470 O.3     1  UNL1       -0.3814
      3 C          -3.4180    6.2320   -3.1670 C.3     1  UNL1        0.0628
      4 C          -2.4280    5.2830   -3.8420 C.3     1  UNL1        0.0353
      5 N          -1.6400    4.5430   -2.8690 N.am    1  UNL1       -0.3092
      6 C          -2.1610    3.4320   -2.2400 C.2     1  UNL1        0.2441
      7 O          -3.2450    2.9390   -2.5330 O.2     1  UNL1       -0.2702
      8 C          -1.3520    2.8600   -1.1270 C.ar    1  UNL1        0.0367
      9 C           0.0360    3.0190   -1.0590 C.ar    1  UNL1       -0.0491
     10 C           0.7540    2.4590    0.0030 C.ar    1  UNL1       -0.0533
     11 C           0.1000    1.7280    1.0080 C.ar    1  UNL1       -0.0175
     12 C           0.8600    1.1320    2.1150 C.ar    1  UNL1       -0.0115
     13 C           1.5420   -0.0810    1.8940 C.ar    1  UNL1       -0.0415
     14 C           2.2730   -0.6970    2.9180 C.ar    1  UNL1        0.0400
     15 C           3.0030   -1.9750    2.7080 C.2     1  UNL1        0.2444
     16 O           4.0130   -2.2120    3.3600 O.2     1  UNL1       -0.2702
     17 N           2.4540   -2.8460    1.7850 N.am    1  UNL1       -0.3085
     18 C           3.0350   -4.1230    1.5160 C.3     1  UNL1        0.0235
     19 C           3.9340   -4.3120    0.3250 C.3     1  UNL1       -0.0328
     20 C           2.5730   -4.9430    0.3430 C.3     1  UNL1       -0.0328
     21 C           2.3500   -0.0900    4.1710 C.ar    1  UNL1       -0.0140
     22 C           1.6800    1.1060    4.3950 C.ar    1  UNL1        0.1276
     23 F           1.7580    1.6600    5.6140 F       1  UNL1       -0.2052
     24 C           0.9350    1.7370    3.3890 C.ar    1  UNL1       -0.0075
     25 C           0.2270    3.0280    3.6960 C.3     1  UNL1       -0.0364
     26 C          -1.2890    1.5610    0.9210 C.ar    1  UNL1       -0.0533
     27 C          -2.0100    2.1190   -0.1390 C.ar    1  UNL1       -0.0491
     28 H          -4.1980    8.6460   -2.4820 H       1  UNL1        0.0523
     29 H          -4.1560    7.5890   -1.0320 H       1  UNL1        0.0523
     30 H          -2.9420    8.8680   -1.2450 H       1  UNL1        0.0523
     31 H          -4.0330    6.7220   -3.9290 H       1  UNL1        0.0575
     32 H          -4.0700    5.6880   -2.4740 H       1  UNL1        0.0575
     33 H          -2.9620    4.5740   -4.4840 H       1  UNL1        0.0485
     34 H          -1.7140    5.8470   -4.4520 H       1  UNL1        0.0485
     35 H          -0.9380    5.0840   -2.3800 H       1  UNL1        0.1491
     36 H           0.5800    3.5540   -1.8330 H       1  UNL1        0.0625
     37 H           1.8340    2.5920    0.0420 H       1  UNL1        0.0624
     38 H           1.5120   -0.5230    0.9000 H       1  UNL1        0.0631
     39 H           1.5280   -2.6650    1.4200 H       1  UNL1        0.1493
     40 H           3.3010   -4.6700    2.4190 H       1  UNL1        0.0498
     41 H           4.1000   -3.4660   -0.3310 H       1  UNL1        0.0284
     42 H           4.8000   -4.9520    0.4500 H       1  UNL1        0.0284
     43 H           2.5160   -6.0180    0.4710 H       1  UNL1        0.0284
     44 H           1.8200   -4.5350   -0.3210 H       1  UNL1        0.0284
     45 H           2.9230   -0.5400    4.9770 H       1  UNL1        0.0654
     46 H           0.4690    3.7890    2.9470 H       1  UNL1        0.0279
     47 H           0.5270    3.4340    4.6680 H       1  UNL1        0.0279
     48 H          -0.8550    2.8690    3.7200 H       1  UNL1        0.0279
     49 H          -1.8220    0.9920    1.6800 H       1  UNL1        0.0624
     50 H          -3.0880    1.9750   -0.1910 H       1  UNL1        0.0625
@<TRIPOS>BOND
     1     1     2    1
     2     1    28    1
     3     1    29    1
     4     1    30    1
     5     2     3    1
     6     3     4    1
     7     3    31    1
     8     3    32    1
     9     4     5    1
    10     4    33    1
    11     4    34    1
    12     5     6   am
    13     5    35    1
    14     6     7    2
    15     6     8    1
    16     8     9   ar
    17     8    27   ar
    18     9    10   ar
    19     9    36    1
    20    10    11   ar
    21    10    37    1
    22    11    12    1
    23    11    26   ar
    24    12    13   ar
    25    12    24   ar
    26    13    14   ar
    27    13    38    1
    28    14    15    1
    29    14    21   ar
    30    15    16    2
    31    15    17   am
    32    17    18    1
    33    17    39    1
    34    18    19    1
    35    18    20    1
    36    18    40    1
    37    19    20    1
    38    19    41    1
    39    19    42    1
    40    20    43    1
    41    20    44    1
    42    21    22   ar
    43    21    45    1
    44    22    23    1
    45    22    24   ar
    46    24    25    1
    47    25    46    1
    48    25    47    1
    49    25    48    1
    50    26    27   ar
    51    26    49    1
    52    27    50    1
@<TRIPOS>MOLECULE
AD3CC00119746-I00-C00
 54 56 0 0 0
SMALL
GASTEIGER

@<TRIPOS>ATOM
      1 C           0.5880    1.4110    3.5410 C.3     1  UNL1       -0.0364
      2 C          -0.4690    0.3420    3.5910 C.ar    1  UNL1       -0.0061
      3 C          -1.0530    0.0380    4.8300 C.ar    1  UNL1        0.1276
      4 F          -0.6440    0.6840    5.9320 F       1  UNL1       -0.2052
      5 C          -2.0570   -0.9120    4.9590 C.ar    1  UNL1       -0.0140
      6 C          -2.5120   -1.5840    3.8270 C.ar    1  UNL1        0.0400
      7 C          -3.6010   -2.5830    3.9850 C.2     1  UNL1        0.2444
      8 O          -3.7270   -3.1810    5.0480 O.2     1  UNL1       -0.2702
      9 N          -4.4380   -2.7460    2.8980 N.am    1  UNL1       -0.3085
     10 C          -5.5480   -3.6460    2.9270 C.3     1  UNL1        0.0235
     11 C          -6.2910   -3.9860    1.6650 C.3     1  UNL1       -0.0328
     12 C          -5.4280   -5.0190    2.3270 C.3     1  UNL1       -0.0328
     13 C          -1.9150   -1.3290    2.5860 C.ar    1  UNL1       -0.0400
     14 C          -0.8810   -0.3780    2.4460 C.ar    1  UNL1        0.0067
     15 C          -0.2950   -0.1820    1.1100 C.ar    1  UNL1        0.0714
     16 C           1.0640   -0.3610    0.8490 C.ar    1  UNL1       -0.0350
     17 C           1.5410   -0.1770   -0.4500 C.ar    1  UNL1       -0.0461
     18 C           0.6480    0.1790   -1.4610 C.ar    1  UNL1        0.0548
     19 C           1.0500    0.3890   -2.8710 C.2     1  UNL1        0.2458
     20 O           0.2190    0.2660   -3.7640 O.2     1  UNL1       -0.2701
     21 N           2.3660    0.7440   -3.0920 N.am    1  UNL1       -0.3085
     22 C           2.8530    1.0790   -4.4310 C.3     1  UNL1        0.0229
     23 C           2.5190    2.5440   -4.7300 C.3     1  UNL1       -0.0464
     24 C           4.3690    0.7720   -4.5390 C.3     1  UNL1       -0.0285
     25 C           4.9530    1.1640   -5.8990 C.3     1  UNL1       -0.0610
     26 C           4.6460   -0.7180   -4.2900 C.3     1  UNL1       -0.0610
     27 C          -0.6930    0.3050   -1.1240 C.ar    1  UNL1        0.0404
     28 N          -1.1790    0.1350    0.1330 N.ar    1  UNL1       -0.2542
     29 H           1.5840    0.9600    3.5830 H       1  UNL1        0.0279
     30 H           0.4980    2.0140    2.6320 H       1  UNL1        0.0279
     31 H           0.4910    2.1060    4.3820 H       1  UNL1        0.0279
     32 H          -2.4850   -1.1110    5.9380 H       1  UNL1        0.0654
     33 H          -4.3790   -2.0960    2.1240 H       1  UNL1        0.1493
     34 H          -6.1430   -3.5600    3.8350 H       1  UNL1        0.0498
     35 H          -7.3660   -4.1070    1.7300 H       1  UNL1        0.0284
     36 H          -5.9480   -3.5700    0.7250 H       1  UNL1        0.0284
     37 H          -5.9120   -5.8360    2.8490 H       1  UNL1        0.0284
     38 H          -4.4930   -5.2900    1.8500 H       1  UNL1        0.0284
     39 H          -2.2270   -1.8880    1.7050 H       1  UNL1        0.0632
     40 H           1.7450   -0.6610    1.6400 H       1  UNL1        0.0639
     41 H           2.5920   -0.3490   -0.6570 H       1  UNL1        0.0626
     42 H           2.9190    1.0660   -2.3100 H       1  UNL1        0.1493
     43 H           2.3090    0.4550   -5.1520 H       1  UNL1        0.0498
     44 H           1.4550    2.7470   -4.5680 H       1  UNL1        0.0248
     45 H           3.0840    3.2170   -4.0760 H       1  UNL1        0.0248
     46 H           2.7420    2.8030   -5.7690 H       1  UNL1        0.0248
     47 H           4.9030    1.3400   -3.7660 H       1  UNL1        0.0313
     48 H           4.9280    2.2480   -6.0470 H       1  UNL1        0.0233
     49 H           4.4000    0.6920   -6.7190 H       1  UNL1        0.0233
     50 H           6.0010    0.8570   -5.9770 H       1  UNL1        0.0233
     51 H           4.3310   -1.0220   -3.2870 H       1  UNL1        0.0233
     52 H           5.7170   -0.9330   -4.3730 H       1  UNL1        0.0233
     53 H           4.1190   -1.3450   -5.0180 H       1  UNL1        0.0233
     54 H          -1.4400    0.5580   -1.8730 H       1  UNL1        0.0837
@<TRIPOS>BOND
     1     1     2    1
     2     1    29    1
     3     1    30    1
     4     1    31    1
     5     2     3   ar
     6     2    14   ar
     7     3     4    1
     8     3     5   ar
     9     5     6   ar
    10     5    32    1
    11     6     7    1
    12     6    13   ar
    13     7     8    2
    14     7     9   am
    15     9    10    1
    16     9    33    1
    17    10    11    1
    18    10    12    1
    19    10    34    1
    20    11    12    1
    21    11    35    1
    22    11    36    1
    23    12    37    1
    24    12    38    1
    25    13    14   ar
    26    13    39    1
    27    14    15    1
    28    15    16   ar
    29    15    28   ar
    30    16    17   ar
    31    16    40    1
    32    17    18   ar
    33    17    41    1
    34    18    19    1
    35    18    27   ar
    36    19    20    2
    37    19    21   am
    38    21    22    1
    39    21    42    1
    40    22    23    1
    41    22    24    1
    42    22    43    1
    43    23    44    1
    44    23    45    1
    45    23    46    1
    46    24    25    1
    47    24    26    1
    48    24    47    1
    49    25    48    1
    50    25    49    1
    51    25    50    1
    52    26    51    1
    53    26    52    1
    54    26    53    1
    55    27    28   ar
    56    27    54    1
@<TRIPOS>MOLECULE
AD3CC00122433-I00-C00
 37 40 0 0 0
SMALL
GASTEIGER

@<TRIPOS>ATOM
      1 C           0.8530    1.3540    3.4550 C.3     1  UNL1       -0.0195
      2 C           1.0690    2.1020    2.1760 C.ar    1  UNL1        0.0740
      3 N           0.5730    1.5490    1.0390 N.ar    1  UNL1       -0.2474
      4 C           0.7590    2.2170   -0.1290 C.ar    1  UNL1        0.0918
      5 C           0.2360    1.6130   -1.3540 C.ar    1  UNL1        0.1165
      6 N           0.5620    2.1020   -2.6110 N.ar    1  UNL1       -0.2126
      7 C          -0.0410    1.3200   -3.4630 C.ar    1  UNL1        0.1914
      8 N          -0.0170    1.3990   -4.7990 N.pl3   1  UNL1       -0.3290
      9 N          -0.7540    0.3470   -2.8260 N.ar    1  UNL1       -0.3257
     10 C          -0.6090    0.5130   -1.4660 C.ar    1  UNL1        0.0768
     11 C          -1.2930   -0.3480   -0.5100 C.ar    1  UNL1        0.0027
     12 C          -2.1720    0.1880    0.4310 C.ar    1  UNL1       -0.0504
     13 C          -2.8310   -0.6500    1.3320 C.ar    1  UNL1       -0.0336
     14 C          -2.6370   -2.0240    1.3120 C.ar    1  UNL1        0.0892
     15 N          -3.2940   -2.8030    2.1950 N.ar    1  UNL1       -0.2519
     16 C          -3.0560   -4.1290    2.1160 C.ar    1  UNL1        0.0464
     17 C          -2.1950   -4.6690    1.1840 C.ar    1  UNL1        0.0464
     18 N          -1.5330   -3.9070    0.2870 N.ar    1  UNL1       -0.2519
     19 C          -1.7500   -2.5780    0.3540 C.ar    1  UNL1        0.0898
     20 C          -1.0970   -1.7340   -0.5350 C.ar    1  UNL1       -0.0251
     21 C           1.4390    3.4330   -0.1900 C.ar    1  UNL1       -0.0314
     22 C           1.9410    3.9880    0.9850 C.ar    1  UNL1       -0.0226
     23 C           1.7510    3.3120    2.1800 C.ar    1  UNL1        0.1443
     24 F           2.2270    3.8310    3.3200 F       1  UNL1       -0.2036
     25 H           1.8140    1.0960    3.9100 H       1  UNL1        0.0293
     26 H           0.3010    0.4250    3.2750 H       1  UNL1        0.0293
     27 H           0.2740    1.9630    4.1570 H       1  UNL1        0.0293
     28 H          -0.1020    0.5580   -5.3580 H       1  UNL1        0.1451
     29 H           0.6890    2.0310   -5.1680 H       1  UNL1        0.1451
     30 H          -1.3310   -0.3430   -3.2800 H       1  UNL1        0.1686
     31 H          -2.3400    1.2620    0.4800 H       1  UNL1        0.0625
     32 H          -3.5070   -0.2220    2.0680 H       1  UNL1        0.0640
     33 H          -3.5830   -4.7510    2.8310 H       1  UNL1        0.0845
     34 H          -2.0130   -5.7360    1.1290 H       1  UNL1        0.0845
     35 H          -0.4060   -2.1760   -1.2490 H       1  UNL1        0.0646
     36 H           1.5780    3.9410   -1.1400 H       1  UNL1        0.0640
     37 H           2.4740    4.9320    0.9720 H       1  UNL1        0.0647
@<TRIPOS>BOND
     1     1     2    1
     2     1    25    1
     3     1    26    1
     4     1    27    1
     5     2     3   ar
     6     2    23   ar
     7     3     4   ar
     8     4     5    1
     9     4    21   ar
    10     5     6   ar
    11     5    10   ar
    12     6     7   ar
    13     7     8    1
    14     7     9   ar
    15     8    28    1
    16     8    29    1
    17     9    10   ar
    18     9    30    1
    19    10    11    1
    20    11    12   ar
    21    11    20   ar
    22    12    13   ar
    23    12    31    1
    24    13    14   ar
    25    13    32    1
    26    14    15   ar
    27    14    19   ar
    28    15    16   ar
    29    16    17   ar
    30    16    33    1
    31    17    18   ar
    32    17    34    1
    33    18    19   ar
    34    19    20   ar
    35    20    35    1
    36    21    22   ar
    37    21    36    1
    38    22    23   ar
    39    22    37    1
    40    23    24    1
@<TRIPOS>MOLECULE
AD3CC00123338-I00-C00
 48 51 0 0 0
SMALL
GASTEIGER

@<TRIPOS>ATOM
      1 C           2.5410    0.4670   -2.4820 C.3     1  UNL1       -0.0391
      2 C           1.3390    1.3340   -2.7540 C.ar    1  UNL1       -0.0427
      3 C           1.3170    2.1190   -3.9180 C.ar    1  UNL1       -0.0575
      4 C           0.2240    2.9370   -4.2070 C.ar    1  UNL1       -0.0493
      5 C          -0.8720    2.9730   -3.3420 C.ar    1  UNL1        0.0377
      6 C          -2.0200    3.8590   -3.6870 C.2     1  UNL1        0.2497
      7 O          -1.7830    4.9030   -4.2810 O.2     1  UNL1       -0.2698
      8 N          -3.2530    3.3710   -3.3210 N.am    1  UNL1       -0.2593
      9 C          -4.4660    3.9890   -3.4990 C.ar    1  UNL1        0.1877
     10 N          -5.5990    3.4040   -3.1740 N.ar    1  UNL1       -0.1259
     11 N          -6.6940    4.2070   -3.4270 N.ar    1  UNL1       -0.1481
     12 C          -6.3330    5.3690   -3.9280 C.ar    1  UNL1        0.0902
     13 S          -4.6440    5.5660   -4.1220 S.2     1  UNL1       -0.0387
     14 C          -0.8550    2.2050   -2.1710 C.ar    1  UNL1       -0.0416
     15 C           0.2410    1.3750   -1.8660 C.ar    1  UNL1       -0.0143
     16 C           0.2080    0.5870   -0.6260 C.ar    1  UNL1       -0.0176
     17 C           0.5500    1.1730    0.6030 C.ar    1  UNL1       -0.0533
     18 C           0.5110    0.4300    1.7870 C.ar    1  UNL1       -0.0491
     19 C           0.1330   -0.9180    1.7570 C.ar    1  UNL1        0.0367
     20 C           0.0720   -1.7510    2.9910 C.2     1  UNL1        0.2441
     21 O          -0.6680   -2.7260    3.0400 O.2     1  UNL1       -0.2702
     22 N           0.9100   -1.3780    4.0220 N.am    1  UNL1       -0.3111
     23 C           1.0270   -2.2110    5.1950 C.3     1  UNL1        0.0147
     24 C           1.7700   -1.4630    6.2530 C.3     1  UNL1       -0.0254
     25 C           2.6170   -2.2020    7.2570 C.3     1  UNL1       -0.0485
     26 C           3.2730   -1.3480    6.2070 C.3     1  UNL1       -0.0485
     27 C          -0.2280   -1.5050    0.5390 C.ar    1  UNL1       -0.0491
     28 C          -0.1870   -0.7590   -0.6430 C.ar    1  UNL1       -0.0533
     29 H           2.2620   -0.5910   -2.5160 H       1  UNL1        0.0278
     30 H           3.3260    0.6250   -3.2290 H       1  UNL1        0.0278
     31 H           2.9720    0.7030   -1.5050 H       1  UNL1        0.0278
     32 H           2.1580    2.1040   -4.6100 H       1  UNL1        0.0621
     33 H           0.2300    3.5450   -5.1100 H       1  UNL1        0.0625
     34 H          -3.3400    2.4370   -2.9450 H       1  UNL1        0.1571
     35 H          -7.0460    6.1370   -4.1930 H       1  UNL1        0.0927
     36 H          -1.6810    2.2580   -1.4650 H       1  UNL1        0.0631
     37 H           0.8450    2.2200    0.6420 H       1  UNL1        0.0624
     38 H           0.7510    0.9250    2.7240 H       1  UNL1        0.0625
     39 H           1.6880   -0.7690    3.8110 H       1  UNL1        0.1490
     40 H           0.0260   -2.4820    5.5490 H       1  UNL1        0.0465
     41 H           1.5440   -3.1320    4.9020 H       1  UNL1        0.0465
     42 H           1.2040   -0.6100    6.6140 H       1  UNL1        0.0316
     43 H           2.6200   -1.8420    8.2800 H       1  UNL1        0.0269
     44 H           2.7120   -3.2780    7.1680 H       1  UNL1        0.0269
     45 H           3.7210   -0.4130    6.5230 H       1  UNL1        0.0269
     46 H           3.8130   -1.8530    5.4130 H       1  UNL1        0.0269
     47 H          -0.5410   -2.5470    0.5070 H       1  UNL1        0.0625
     48 H          -0.4680   -1.2360   -1.5800 H       1  UNL1        0.0624
@<TRIPOS>BOND
     1     1     2    1
     2     1    29    1
     3     1    30    1
     4     1    31    1
     5     2     3   ar
     6     2    15   ar
     7     3     4   ar
     8     3    32    1
     9     4     5   ar
    10     4    33    1
    11     5     6    1
    12     5    14   ar
    13     6     7    2
    14     6     8   am
    15     8     9    1
    16     8    34    1
    17     9    10   ar
    18     9    13   ar
    19    10    11   ar
    20    11    12   ar
    21    12    13   ar
    22    12    35    1
    23    14    15   ar
    24    14    36    1
    25    15    16    1
    26    16    17   ar
    27    16    28   ar
    28    17    18   ar
    29    17    37    1
    30    18    19   ar
    31    18    38    1
    32    19    20    1
    33    19    27   ar
    34    20    21    2
    35    20    22   am
    36    22    23    1
    37    22    39    1
    38    23    24    1
    39    23    40    1
    40    23    41    1
    41    24    25    1
    42    24    26    1
    43    24    42    1
    44    25    26    1
    45    25    43    1
    46    25    44    1
    47    26    45    1
    48    26    46    1
    49    27    28   ar
    50    27    47    1
    51    28    48    1
@<TRIPOS>MOLECULE
AD3CC00124379-I00-C00
 66 69 0 0 0
SMALL
GASTEIGER

@<TRIPOS>ATOM
      1 C           0.9140    2.6090    6.2970 C.3     1  UNL1        0.0310
      2 N           0.2210    3.1820    5.1640 N.ar    1  UNL1       -0.2632
      3 N          -0.3980    4.3650    5.3260 N.ar    1  UNL1       -0.1753
      4 C          -0.9320    4.6380    4.1300 C.ar    1  UNL1        0.0691
      5 C          -1.7210    5.9210    3.9210 C.3     1  UNL1        0.0062
      6 C          -0.8270    7.1460    4.2060 C.3     1  UNL1       -0.0546
      7 C          -2.2450    6.0440    2.4750 C.3     1  UNL1       -0.0546
      8 C          -2.9370    5.9560    4.8690 C.3     1  UNL1       -0.0546
      9 C          -0.6440    3.6010    3.2110 C.ar    1  UNL1       -0.0092
     10 C           0.1080    2.6620    3.8970 C.ar    1  UNL1        0.1135
     11 C           0.6780    1.3980    3.4830 C.2     1  UNL1        0.2652
     12 O           1.2550    0.6170    4.2410 O.2     1  UNL1       -0.2801
     13 C           0.5510    0.9480    2.0070 C.2     1  UNL1        0.2902
     14 O           0.1810    1.7180    1.1360 O.2     1  UNL1       -0.2662
     15 N           0.9210   -0.3790    1.8660 N.am    1  UNL1       -0.2783
     16 C           0.9440   -1.1810    0.6980 C.ar    1  UNL1        0.0417
     17 C           0.5180   -0.6690   -0.5300 C.ar    1  UNL1       -0.0364
     18 C           0.5350   -1.4510   -1.6840 C.ar    1  UNL1       -0.0176
     19 C           0.9860   -2.7670   -1.6380 C.ar    1  UNL1        0.1283
     20 O           1.0200   -3.6020   -2.7300 O.3     1  UNL1       -0.4901
     21 C           0.8760   -3.0450   -4.0410 C.3     1  UNL1        0.1023
     22 C          -0.5920   -3.1070   -4.4940 C.3     1  UNL1        0.0333
     23 N          -0.8510   -2.4220   -5.7750 N.3     1  UNL1       -0.2948
     24 C          -0.2110   -3.1140   -6.9160 C.3     1  UNL1        0.0225
     25 C          -0.5740   -2.4490   -8.2550 C.3     1  UNL1        0.0604
     26 O          -1.9930   -2.4190   -8.4530 O.3     1  UNL1       -0.3772
     27 C          -2.6210   -1.7030   -7.3820 C.3     1  UNL1        0.0604
     28 C          -2.3100   -2.3550   -6.0260 C.3     1  UNL1        0.0225
     29 C           1.4130   -3.3250   -0.4080 C.ar    1  UNL1        0.0256
     30 C           1.8620   -4.6650   -0.3350 C.ar    1  UNL1       -0.0505
     31 C           2.2920   -5.2380    0.8580 C.ar    1  UNL1       -0.0611
     32 C           2.2870   -4.4820    2.0160 C.ar    1  UNL1       -0.0611
     33 C           1.8500   -3.1560    1.9760 C.ar    1  UNL1       -0.0521
     34 C           1.4010   -2.5350    0.7780 C.ar    1  UNL1        0.0068
     35 H           0.8530    3.2940    7.1470 H       1  UNL1        0.0473
     36 H           0.4330    1.6630    6.5550 H       1  UNL1        0.0473
     37 H           1.9620    2.4600    6.0240 H       1  UNL1        0.0473
     38 H           0.0560    7.1500    3.5560 H       1  UNL1        0.0239
     39 H          -0.4710    7.1530    5.2430 H       1  UNL1        0.0239
     40 H          -1.3710    8.0820    4.0400 H       1  UNL1        0.0239
     41 H          -2.8110    6.9730    2.3360 H       1  UNL1        0.0239
     42 H          -1.4220    6.0500    1.7500 H       1  UNL1        0.0239
     43 H          -2.9110    5.2130    2.2170 H       1  UNL1        0.0239
     44 H          -3.5320    6.8640    4.7190 H       1  UNL1        0.0239
     45 H          -2.6290    5.9350    5.9210 H       1  UNL1        0.0239
     46 H          -3.5930    5.0940    4.7030 H       1  UNL1        0.0239
     47 H          -0.9520    3.5530    2.1750 H       1  UNL1        0.0658
     48 H           1.2390   -0.7960    2.7340 H       1  UNL1        0.1552
     49 H           0.1540    0.3480   -0.6340 H       1  UNL1        0.0637
     50 H           0.1750   -0.9930   -2.6000 H       1  UNL1        0.0655
     51 H           1.3030   -2.0380   -4.1150 H       1  UNL1        0.0709
     52 H           1.4850   -3.6770   -4.6980 H       1  UNL1        0.0709
     53 H          -1.2080   -2.6440   -3.7130 H       1  UNL1        0.0460
     54 H          -0.9140   -4.1560   -4.5320 H       1  UNL1        0.0460
     55 H          -0.5320   -4.1640   -6.9430 H       1  UNL1        0.0449
     56 H           0.8790   -3.0930   -6.8130 H       1  UNL1        0.0449
     57 H          -0.1370   -3.0190   -9.0810 H       1  UNL1        0.0572
     58 H          -0.1790   -1.4270   -8.3100 H       1  UNL1        0.0572
     59 H          -2.2950   -0.6560   -7.4050 H       1  UNL1        0.0572
     60 H          -3.7000   -1.7190   -7.5620 H       1  UNL1        0.0572
     61 H          -2.7370   -3.3660   -6.0120 H       1  UNL1        0.0449
     62 H          -2.7970   -1.7700   -5.2370 H       1  UNL1        0.0449
     63 H           1.8780   -5.2830   -1.2320 H       1  UNL1        0.0625
     64 H           2.6300   -6.2710    0.8760 H       1  UNL1        0.0618
     65 H           2.6220   -4.9180    2.9540 H       1  UNL1        0.0618
     66 H           1.8720   -2.6200    2.9200 H       1  UNL1        0.0624
@<TRIPOS>BOND
     1     1     2    1
     2     1    35    1
     3     1    36    1
     4     1    37    1
     5     2     3   ar
     6     2    10   ar
     7     3     4   ar
     8     4     5    1
     9     4     9   ar
    10     5     6    1
    11     5     7    1
    12     5     8    1
    13     6    38    1
    14     6    39    1
    15     6    40    1
    16     7    41    1
    17     7    42    1
    18     7    43    1
    19     8    44    1
    20     8    45    1
    21     8    46    1
    22     9    10   ar
    23     9    47    1
    24    10    11    1
    25    11    12    2
    26    11    13    1
    27    13    14    2
    28    13    15   am
    29    15    16    1
    30    15    48    1
    31    16    17   ar
    32    16    34   ar
    33    17    18   ar
    34    17    49    1
    35    18    19   ar
    36    18    50    1
    37    19    20    1
    38    19    29   ar
    39    20    21    1
    40    21    22    1
    41    21    51    1
    42    21    52    1
    43    22    23    1
    44    22    53    1
    45    22    54    1
    46    23    24    1
    47    23    28    1
    48    24    25    1
    49    24    55    1
    50    24    56    1
    51    25    26    1
    52    25    57    1
    53    25    58    1
    54    26    27    1
    55    27    28    1
    56    27    59    1
    57    27    60    1
    58    28    61    1
    59    28    62    1
    60    29    30   ar
    61    29    34   ar
    62    30    31   ar
    63    30    63    1
    64    31    32   ar
    65    31    64    1
    66    32    33   ar
    67    32    65    1
    68    33    34   ar
    69    33    66    1
@<TRIPOS>MOLECULE
AD3CC00124381-I00-C00
 71 75 0 0 0
SMALL
GASTEIGER

@<TRIPOS>ATOM
      1 C          -6.5290   -2.8930   -2.3280 C.3     1  UNL1       -0.0056
      2 C          -5.1410   -3.2730   -2.6730 C.ar    1  UNL1        0.1132
      3 O          -5.0120   -4.2980   -3.5570 O.2     1  UNL1       -0.4636
      4 C          -3.6800   -4.5070   -3.7580 C.ar    1  UNL1        0.1113
      5 C          -3.3150   -5.6140   -4.7130 C.3     1  UNL1        0.0203
      6 C          -1.7890   -5.7070   -4.8960 C.3     1  UNL1       -0.0532
      7 C          -3.9560   -5.3470   -6.0880 C.3     1  UNL1       -0.0532
      8 C          -3.8250   -6.9580   -4.1640 C.3     1  UNL1       -0.0532
      9 C          -2.9590   -3.6100   -2.9940 C.ar    1  UNL1       -0.0089
     10 C          -3.8960   -2.8020   -2.2850 C.ar    1  UNL1        0.0678
     11 C          -3.6780   -1.7100   -1.3450 C.2     1  UNL1        0.2508
     12 O          -4.6150   -1.1010   -0.8180 O.2     1  UNL1       -0.2816
     13 C          -2.2670   -1.2310   -0.9390 C.2     1  UNL1        0.2887
     14 O          -1.2710   -1.7620   -1.4010 O.2     1  UNL1       -0.2663
     15 N          -2.3370   -0.1810   -0.0380 N.am    1  UNL1       -0.2783
     16 C          -1.2860    0.5390    0.5810 C.ar    1  UNL1        0.0415
     17 C           0.0480    0.2210    0.3160 C.ar    1  UNL1       -0.0393
     18 C           1.0830    0.9230    0.9240 C.ar    1  UNL1       -0.0516
     19 C           0.8220    1.9690    1.8180 C.ar    1  UNL1       -0.0086
     20 C           1.9730    2.6510    2.4260 C.ar    1  UNL1        0.0008
     21 C           2.6800    3.6430    1.7420 C.ar    1  UNL1       -0.0508
     22 C           3.7700    4.2650    2.3480 C.ar    1  UNL1       -0.0386
     23 C           4.1370    3.8830    3.6380 C.ar    1  UNL1        0.0553
     24 C           5.3260    4.5370    4.3200 C.3     1  UNL1        0.0414
     25 N           6.6190    4.2730    3.6530 N.3     1  UNL1       -0.2923
     26 C           7.6830    5.0940    4.2680 C.3     1  UNL1        0.0228
     27 C           9.0560    4.7800    3.6540 C.3     1  UNL1        0.0604
     28 O           9.3870    3.3950    3.8110 O.3     1  UNL1       -0.3772
     29 C           8.3870    2.5780    3.1860 C.3     1  UNL1        0.0604
     30 C           6.9950    2.8440    3.7830 C.3     1  UNL1        0.0228
     31 N           3.4720    2.9200    4.3250 N.ar    1  UNL1       -0.2580
     32 C           2.4200    2.3310    3.7070 C.ar    1  UNL1        0.0356
     33 C          -0.5260    2.3230    2.1040 C.ar    1  UNL1       -0.0084
     34 C          -0.8410    3.3830    2.9900 C.ar    1  UNL1       -0.0534
     35 C          -2.1540    3.7420    3.2850 C.ar    1  UNL1       -0.0611
     36 C          -3.1950    3.0490    2.6980 C.ar    1  UNL1       -0.0611
     37 C          -2.9200    2.0030    1.8150 C.ar    1  UNL1       -0.0522
     38 C          -1.5940    1.6050    1.4870 C.ar    1  UNL1        0.0039
     39 H          -6.7000   -3.0030   -1.2530 H       1  UNL1        0.0308
     40 H          -6.7220   -1.8530   -2.6080 H       1  UNL1        0.0308
     41 H          -7.2560   -3.5220   -2.8510 H       1  UNL1        0.0308
     42 H          -1.3750   -4.7720   -5.2940 H       1  UNL1        0.0239
     43 H          -1.5220   -6.5090   -5.5940 H       1  UNL1        0.0239
     44 H          -1.2820   -5.9150   -3.9460 H       1  UNL1        0.0239
     45 H          -5.0500   -5.3170   -6.0240 H       1  UNL1        0.0239
     46 H          -3.6250   -4.3860   -6.4990 H       1  UNL1        0.0239
     47 H          -3.6890   -6.1290   -6.8080 H       1  UNL1        0.0239
     48 H          -3.3940   -7.1740   -3.1790 H       1  UNL1        0.0239
     49 H          -4.9160   -6.9590   -4.0510 H       1  UNL1        0.0239
     50 H          -3.5620   -7.7860   -4.8330 H       1  UNL1        0.0239
     51 H          -1.8790   -3.5510   -2.9570 H       1  UNL1        0.0659
     52 H          -3.2920    0.0780    0.1880 H       1  UNL1        0.1552
     53 H           0.3270   -0.5780   -0.3630 H       1  UNL1        0.0636
     54 H           2.1100    0.6420    0.6950 H       1  UNL1        0.0624
     55 H           2.3870    3.9350    0.7360 H       1  UNL1        0.0625
     56 H           4.3330    5.0290    1.8210 H       1  UNL1        0.0636
     57 H           5.1300    5.6180    4.3230 H       1  UNL1        0.0491
     58 H           5.3580    4.2250    5.3720 H       1  UNL1        0.0491
     59 H           7.7260    4.9060    5.3490 H       1  UNL1        0.0449
     60 H           7.4660    6.1580    4.1170 H       1  UNL1        0.0449
     61 H           9.0860    5.0420    2.5890 H       1  UNL1        0.0572
     62 H           9.8300    5.3640    4.1610 H       1  UNL1        0.0572
     63 H           8.3970    2.7590    2.1040 H       1  UNL1        0.0572
     64 H           8.6660    1.5320    3.3510 H       1  UNL1        0.0572
     65 H           6.2730    2.2070    3.2610 H       1  UNL1        0.0449
     66 H           7.0040    2.5540    4.8420 H       1  UNL1        0.0449
     67 H           1.9220    1.5640    4.2950 H       1  UNL1        0.0836
     68 H          -0.0510    3.9590    3.4700 H       1  UNL1        0.0624
     69 H          -2.3550    4.5600    3.9710 H       1  UNL1        0.0618
     70 H          -4.2250    3.3190    2.9200 H       1  UNL1        0.0618
     71 H          -3.7860    1.5060    1.3890 H       1  UNL1        0.0624
@<TRIPOS>BOND
     1     1     2    1
     2     1    39    1
     3     1    40    1
     4     1    41    1
     5     2     3   ar
     6     2    10   ar
     7     3     4   ar
     8     4     5    1
     9     4     9   ar
    10     5     6    1
    11     5     7    1
    12     5     8    1
    13     6    42    1
    14     6    43    1
    15     6    44    1
    16     7    45    1
    17     7    46    1
    18     7    47    1
    19     8    48    1
    20     8    49    1
    21     8    50    1
    22     9    10   ar
    23     9    51    1
    24    10    11    1
    25    11    12    2
    26    11    13    1
    27    13    14    2
    28    13    15   am
    29    15    16    1
    30    15    52    1
    31    16    17   ar
    32    16    38   ar
    33    17    18   ar
    34    17    53    1
    35    18    19   ar
    36    18    54    1
    37    19    20    1
    38    19    33   ar
    39    20    21   ar
    40    20    32   ar
    41    21    22   ar
    42    21    55    1
    43    22    23   ar
    44    22    56    1
    45    23    24    1
    46    23    31   ar
    47    24    25    1
    48    24    57    1
    49    24    58    1
    50    25    26    1
    51    25    30    1
    52    26    27    1
    53    26    59    1
    54    26    60    1
    55    27    28    1
    56    27    61    1
    57    27    62    1
    58    28    29    1
    59    29    30    1
    60    29    63    1
    61    29    64    1
    62    30    65    1
    63    30    66    1
    64    31    32   ar
    65    32    67    1
    66    33    34   ar
    67    33    38   ar
    68    34    35   ar
    69    34    68    1
    70    35    36   ar
    71    35    69    1
    72    36    37   ar
    73    36    70    1
    74    37    38   ar
    75    37    71    1
@<TRIPOS>MOLECULE
AD3CC00124381-I00-C00
 71 75 0 0 0
SMALL
GASTEIGER

@<TRIPOS>ATOM
      1 C          -6.5290   -2.8930   -2.3280 C.3     1  UNL1       -0.0056
      2 C          -5.1410   -3.2730   -2.6730 C.ar    1  UNL1        0.1132
      3 O          -5.0120   -4.2980   -3.5570 O.2     1  UNL1       -0.4636
      4 C          -3.6800   -4.5070   -3.7580 C.ar    1  UNL1        0.1113
      5 C          -3.3150   -5.6140   -4.7130 C.3     1  UNL1        0.0203
      6 C          -1.7890   -5.7070   -4.8960 C.3     1  UNL1       -0.0532
      7 C          -3.9560   -5.3470   -6.0880 C.3     1  UNL1       -0.0532
      8 C          -3.8250   -6.9580   -4.1640 C.3     1  UNL1       -0.0532
      9 C          -2.9590   -3.6100   -2.9940 C.ar    1  UNL1       -0.0089
     10 C          -3.8960   -2.8020   -2.2850 C.ar    1  UNL1        0.0678
     11 C          -3.6780   -1.7100   -1.3450 C.2     1  UNL1        0.2508
     12 O          -4.6150   -1.1010   -0.8180 O.2     1  UNL1       -0.2816
     13 C          -2.2670   -1.2310   -0.9390 C.2     1  UNL1        0.2887
     14 O          -1.2710   -1.7620   -1.4010 O.2     1  UNL1       -0.2663
     15 N          -2.3370   -0.1810   -0.0380 N.am    1  UNL1       -0.2783
     16 C          -1.2860    0.5390    0.5810 C.ar    1  UNL1        0.0415
     17 C           0.0480    0.2210    0.3160 C.ar    1  UNL1       -0.0393
     18 C           1.0830    0.9230    0.9240 C.ar    1  UNL1       -0.0516
     19 C           0.8220    1.9690    1.8180 C.ar    1  UNL1       -0.0086
     20 C           1.9730    2.6510    2.4260 C.ar    1  UNL1        0.0008
     21 C           2.6800    3.6430    1.7420 C.ar    1  UNL1       -0.0508
     22 C           3.7700    4.2650    2.3480 C.ar    1  UNL1       -0.0386
     23 C           4.1370    3.8830    3.6380 C.ar    1  UNL1        0.0553
     24 C           5.3260    4.5370    4.3200 C.3     1  UNL1        0.0414
     25 N           6.6190    4.2730    3.6530 N.3     1  UNL1       -0.2923
     26 C           7.6830    5.0940    4.2680 C.3     1  UNL1        0.0228
     27 C           9.0560    4.7800    3.6540 C.3     1  UNL1        0.0604
     28 O           9.3870    3.3950    3.8110 O.3     1  UNL1       -0.3772
     29 C           8.3870    2.5780    3.1860 C.3     1  UNL1        0.0604
     30 C           6.9950    2.8440    3.7830 C.3     1  UNL1        0.0228
     31 N           3.4720    2.9200    4.3250 N.ar    1  UNL1       -0.2580
     32 C           2.4200    2.3310    3.7070 C.ar    1  UNL1        0.0356
     33 C          -0.5260    2.3230    2.1040 C.ar    1  UNL1       -0.0084
     34 C          -0.8410    3.3830    2.9900 C.ar    1  UNL1       -0.0534
     35 C          -2.1540    3.7420    3.2850 C.ar    1  UNL1       -0.0611
     36 C          -3.1950    3.0490    2.6980 C.ar    1  UNL1       -0.0611
     37 C          -2.9200    2.0030    1.8150 C.ar    1  UNL1       -0.0522
     38 C          -1.5940    1.6050    1.4870 C.ar    1  UNL1        0.0039
     39 H          -6.7000   -3.0030   -1.2530 H       1  UNL1        0.0308
     40 H          -6.7220   -1.8530   -2.6080 H       1  UNL1        0.0308
     41 H          -7.2560   -3.5220   -2.8510 H       1  UNL1        0.0308
     42 H          -1.3750   -4.7720   -5.2940 H       1  UNL1        0.0239
     43 H          -1.5220   -6.5090   -5.5940 H       1  UNL1        0.0239
     44 H          -1.2820   -5.9150   -3.9460 H       1  UNL1        0.0239
     45 H          -5.0500   -5.3170   -6.0240 H       1  UNL1        0.0239
     46 H          -3.6250   -4.3860   -6.4990 H       1  UNL1        0.0239
     47 H          -3.6890   -6.1290   -6.8080 H       1  UNL1        0.0239
     48 H          -3.3940   -7.1740   -3.1790 H       1  UNL1        0.0239
     49 H          -4.9160   -6.9590   -4.0510 H       1  UNL1        0.0239
     50 H          -3.5620   -7.7860   -4.8330 H       1  UNL1        0.0239
     51 H          -1.8790   -3.5510   -2.9570 H       1  UNL1        0.0659
     52 H          -3.2920    0.0780    0.1880 H       1  UNL1        0.1552
     53 H           0.3270   -0.5780   -0.3630 H       1  UNL1        0.0636
     54 H           2.1100    0.6420    0.6950 H       1  UNL1        0.0624
     55 H           2.3870    3.9350    0.7360 H       1  UNL1        0.0625
     56 H           4.3330    5.0290    1.8210 H       1  UNL1        0.0636
     57 H           5.1300    5.6180    4.3230 H       1  UNL1        0.0491
     58 H           5.3580    4.2250    5.3720 H       1  UNL1        0.0491
     59 H           7.7260    4.9060    5.3490 H       1  UNL1        0.0449
     60 H           7.4660    6.1580    4.1170 H       1  UNL1        0.0449
     61 H           9.0860    5.0420    2.5890 H       1  UNL1        0.0572
     62 H           9.8300    5.3640    4.1610 H       1  UNL1        0.0572
     63 H           8.3970    2.7590    2.1040 H       1  UNL1        0.0572
     64 H           8.6660    1.5320    3.3510 H       1  UNL1        0.0572
     65 H           6.2730    2.2070    3.2610 H       1  UNL1        0.0449
     66 H           7.0040    2.5540    4.8420 H       1  UNL1        0.0449
     67 H           1.9220    1.5640    4.2950 H       1  UNL1        0.0836
     68 H          -0.0510    3.9590    3.4700 H       1  UNL1        0.0624
     69 H          -2.3550    4.5600    3.9710 H       1  UNL1        0.0618
     70 H          -4.2250    3.3190    2.9200 H       1  UNL1        0.0618
     71 H          -3.7860    1.5060    1.3890 H       1  UNL1        0.0624
@<TRIPOS>BOND
     1     1     2    1
     2     1    39    1
     3     1    40    1
     4     1    41    1
     5     2     3   ar
     6     2    10   ar
     7     3     4   ar
     8     4     5    1
     9     4     9   ar
    10     5     6    1
    11     5     7    1
    12     5     8    1
    13     6    42    1
    14     6    43    1
    15     6    44    1
    16     7    45    1
    17     7    46    1
    18     7    47    1
    19     8    48    1
    20     8    49    1
    21     8    50    1
    22     9    10   ar
    23     9    51    1
    24    10    11    1
    25    11    12    2
    26    11    13    1
    27    13    14    2
    28    13    15   am
    29    15    16    1
    30    15    52    1
    31    16    17   ar
    32    16    38   ar
    33    17    18   ar
    34    17    53    1
    35    18    19   ar
    36    18    54    1
    37    19    20    1
    38    19    33   ar
    39    20    21   ar
    40    20    32   ar
    41    21    22   ar
    42    21    55    1
    43    22    23   ar
    44    22    56    1
    45    23    24    1
    46    23    31   ar
    47    24    25    1
    48    24    57    1
    49    24    58    1
    50    25    26    1
    51    25    30    1
    52    26    27    1
    53    26    59    1
    54    26    60    1
    55    27    28    1
    56    27    61    1
    57    27    62    1
    58    28    29    1
    59    29    30    1
    60    29    63    1
    61    29    64    1
    62    30    65    1
    63    30    66    1
    64    31    32   ar
    65    32    67    1
    66    33    34   ar
    67    33    38   ar
    68    34    35   ar
    69    34    68    1
    70    35    36   ar
    71    35    69    1
    72    36    37   ar
    73    36    70    1
    74    37    38   ar
    75    37    71    1
@<TRIPOS>MOLECULE
AD3CC00126602-I00-C00
 51 54 0 0 0
SMALL
GASTEIGER

@<TRIPOS>ATOM
      1 O           0.5710   -2.4130   -0.9610 O.2     1  UNL1       -0.2866
      2 C          -0.1900   -1.5490   -0.5240 C.2     1  UNL1        0.1938
      3 C          -0.4650   -0.3340   -1.3470 C.ar    1  UNL1        0.0256
      4 C           0.5240   -0.0340   -2.3030 C.ar    1  UNL1       -0.0489
      5 C           0.4420    1.1000   -3.1180 C.ar    1  UNL1       -0.0399
      6 C          -0.6360    1.9700   -3.0120 C.ar    1  UNL1        0.0317
      7 N          -0.7610    3.1540   -3.7580 N.pl3   1  UNL1       -0.3122
      8 C           0.1740    3.9080   -4.4950 C.ar    1  UNL1        0.0672
      9 C           1.5300    3.9840   -4.1550 C.ar    1  UNL1       -0.0350
     10 C           2.4170    4.7410   -4.9280 C.ar    1  UNL1       -0.0245
     11 C           1.9480    5.4300   -6.0420 C.ar    1  UNL1        0.1262
     12 F           2.8020    6.1540   -6.7760 F       1  UNL1       -0.2054
     13 C           0.6100    5.3840   -6.3980 C.ar    1  UNL1        0.0106
     14 C          -0.2610    4.6290   -5.6210 C.ar    1  UNL1        0.1471
     15 F          -1.5600    4.5880   -5.9620 F       1  UNL1       -0.2035
     16 C          -1.6260    1.6660   -2.0650 C.ar    1  UNL1       -0.0367
     17 C          -1.5770    0.5150   -1.2390 C.ar    1  UNL1       -0.0345
     18 C          -2.7460    0.3330   -0.3010 C.3     1  UNL1       -0.0229
     19 C          -3.0470   -1.0970    0.1250 C.3     1  UNL1       -0.0230
     20 C          -2.0630   -1.5510    1.1620 C.ar    1  UNL1       -0.0360
     21 C          -2.4850   -1.7920    2.4780 C.ar    1  UNL1       -0.0544
     22 C          -1.5820   -2.2280    3.4540 C.ar    1  UNL1       -0.0196
     23 C          -0.2450   -2.4380    3.1260 C.ar    1  UNL1        0.1212
     24 O           0.7350   -2.8670    3.9760 O.3     1  UNL1       -0.4919
     25 C           0.3560   -3.1540    5.3220 C.3     1  UNL1        0.0917
     26 C           1.5860   -3.6340    6.0820 C.3     1  UNL1        0.0046
     27 C           2.6670   -2.5640    6.1590 C.3     1  UNL1        0.0473
     28 O           3.7570   -3.0440    6.9380 O.3     1  UNL1       -0.3949
     29 C           0.1790   -2.2000    1.8180 C.ar    1  UNL1       -0.0089
     30 C          -0.7190   -1.7440    0.8410 C.ar    1  UNL1        0.0289
     31 H           1.3880   -0.6890   -2.4190 H       1  UNL1        0.0625
     32 H           1.2240    1.2630   -3.8530 H       1  UNL1        0.0636
     33 H          -1.7210    3.3490   -4.0390 H       1  UNL1        0.1522
     34 H           1.9070    3.4810   -3.2680 H       1  UNL1        0.0638
     35 H           3.4670    4.8030   -4.6610 H       1  UNL1        0.0647
     36 H           0.2490    5.9270   -7.2630 H       1  UNL1        0.0675
     37 H          -2.4660    2.3530   -1.9600 H       1  UNL1        0.0639
     38 H          -2.5900    0.9750    0.5760 H       1  UNL1        0.0317
     39 H          -3.6470    0.7020   -0.8090 H       1  UNL1        0.0317
     40 H          -3.0460   -1.7880   -0.7270 H       1  UNL1        0.0317
     41 H          -4.0620   -1.1330    0.5430 H       1  UNL1        0.0317
     42 H          -3.5270   -1.6470    2.7580 H       1  UNL1        0.0622
     43 H          -1.9600   -2.4010    4.4570 H       1  UNL1        0.0654
     44 H          -0.3970   -3.9500    5.3350 H       1  UNL1        0.0697
     45 H          -0.0460   -2.2550    5.8040 H       1  UNL1        0.0697
     46 H           2.0050   -4.5220    5.5940 H       1  UNL1        0.0320
     47 H           1.3010   -3.9420    7.0950 H       1  UNL1        0.0320
     48 H           3.0440   -2.2900    5.1680 H       1  UNL1        0.0558
     49 H           2.2840   -1.6590    6.6420 H       1  UNL1        0.0558
     50 H           4.1600   -3.7800    6.4460 H       1  UNL1        0.2094
     51 H           1.2200   -2.3770    1.5550 H       1  UNL1        0.0661
@<TRIPOS>BOND
     1     1     2    2
     2     2     3    1
     3     2    30    1
     4     3     4   ar
     5     3    17   ar
     6     4     5   ar
     7     4    31    1
     8     5     6   ar
     9     5    32    1
    10     6     7    1
    11     6    16   ar
    12     7     8    1
    13     7    33    1
    14     8     9   ar
    15     8    14   ar
    16     9    10   ar
    17     9    34    1
    18    10    11   ar
    19    10    35    1
    20    11    12    1
    21    11    13   ar
    22    13    14   ar
    23    13    36    1
    24    14    15    1
    25    16    17   ar
    26    16    37    1
    27    17    18    1
    28    18    19    1
    29    18    38    1
    30    18    39    1
    31    19    20    1
    32    19    40    1
    33    19    41    1
    34    20    21   ar
    35    20    30   ar
    36    21    22   ar
    37    21    42    1
    38    22    23   ar
    39    22    43    1
    40    23    24    1
    41    23    29   ar
    42    24    25    1
    43    25    26    1
    44    25    44    1
    45    25    45    1
    46    26    27    1
    47    26    46    1
    48    26    47    1
    49    27    28    1
    50    27    48    1
    51    27    49    1
    52    28    50    1
    53    29    30   ar
    54    29    51    1
@<TRIPOS>MOLECULE
AD3CC00127765-I00-C00
 51 55 0 0 0
SMALL
GASTEIGER

@<TRIPOS>ATOM
      1 C           4.2900   -2.3290    0.0710 C.3     1  UNL1        0.0166
      2 N           3.4690   -1.2530    0.5950 N.ar    1  UNL1       -0.2957
      3 C           4.1200   -0.0500    0.9030 C.ar    1  UNL1        0.2544
      4 O           5.3050    0.1700    0.6540 O.2     1  UNL1       -0.2676
      5 C           3.3350    1.0350    1.5710 C.ar    1  UNL1        0.0249
      6 C           2.0480    0.8770    1.9360 C.ar    1  UNL1        0.0488
      7 N           1.3190    1.9000    2.5270 N.pl3   1  UNL1       -0.3126
      8 C           0.0470    2.3980    2.1240 C.ar    1  UNL1        0.0506
      9 C          -0.6440    1.8850    1.0160 C.ar    1  UNL1       -0.0270
     10 C          -1.9480    2.2990    0.7130 C.ar    1  UNL1        0.0385
     11 C          -2.6890    1.6980   -0.4280 C.2     1  UNL1        0.2443
     12 O          -3.4730    2.3820   -1.0730 O.2     1  UNL1       -0.2702
     13 N          -2.4420    0.3550   -0.6530 N.am    1  UNL1       -0.3085
     14 C          -3.0550   -0.3740   -1.7160 C.3     1  UNL1        0.0235
     15 C          -2.2160   -0.9080   -2.8440 C.3     1  UNL1       -0.0328
     16 C          -2.8250   -1.8560   -1.8540 C.3     1  UNL1       -0.0328
     17 C          -2.5610    3.2900    1.4810 C.ar    1  UNL1       -0.0481
     18 C          -1.8860    3.8350    2.5740 C.ar    1  UNL1       -0.0409
     19 C          -0.6020    3.3830    2.8990 C.ar    1  UNL1        0.0621
     20 CL          0.1810    4.0790    4.2760 Cl      1  UNL1       -0.0816
     21 C           1.4670   -0.4060    1.7100 C.ar    1  UNL1        0.0586
     22 C           0.3140   -1.0350    2.1890 C.ar    1  UNL1        0.0608
     23 N           0.1680   -2.2600    1.6780 N.ar    1  UNL1       -0.1721
     24 N           1.1990   -2.3800    0.7830 N.ar    1  UNL1       -0.2127
     25 C           1.0990   -3.3780   -0.2160 C.ar    1  UNL1        0.1054
     26 C           0.3880   -4.5550    0.0610 C.ar    1  UNL1        0.0019
     27 C           0.2580   -5.5260   -0.9280 C.ar    1  UNL1        0.1256
     28 F          -0.4040   -6.6580   -0.6560 F       1  UNL1       -0.2054
     29 C           0.8010   -5.3400   -2.1950 C.ar    1  UNL1       -0.0236
     30 C           1.4730   -4.1540   -2.4840 C.ar    1  UNL1       -0.0216
     31 C           1.6100   -3.1760   -1.4990 C.ar    1  UNL1        0.1489
     32 F           2.1700   -2.0110   -1.8520 F       1  UNL1       -0.2033
     33 C           2.1270   -1.3600    0.9730 C.ar    1  UNL1        0.1486
     34 H           4.4060   -2.2000   -1.0080 H       1  UNL1        0.0457
     35 H           5.2860   -2.2980    0.5250 H       1  UNL1        0.0457
     36 H           3.8540   -3.3040    0.3010 H       1  UNL1        0.0457
     37 H           3.8730    1.9630    1.7160 H       1  UNL1        0.0691
     38 H           1.8870    2.6560    2.9130 H       1  UNL1        0.1522
     39 H          -0.1580    1.1780    0.3500 H       1  UNL1        0.0644
     40 H          -1.9140   -0.1750    0.0310 H       1  UNL1        0.1493
     41 H          -4.0500   -0.0140   -1.9730 H       1  UNL1        0.0498
     42 H          -2.6370   -0.8690   -3.8420 H       1  UNL1        0.0284
     43 H          -1.1450   -0.7490   -2.8090 H       1  UNL1        0.0284
     44 H          -2.1660   -2.3510   -1.1510 H       1  UNL1        0.0284
     45 H          -3.6600   -2.4660   -2.1810 H       1  UNL1        0.0284
     46 H          -3.5650    3.6330    1.2330 H       1  UNL1        0.0625
     47 H          -2.3690    4.6040    3.1730 H       1  UNL1        0.0633
     48 H          -0.4230   -0.6630    2.8890 H       1  UNL1        0.0855
     49 H          -0.0570   -4.7380    1.0360 H       1  UNL1        0.0668
     50 H           0.6790   -6.1110   -2.9500 H       1  UNL1        0.0647
     51 H           1.8710   -3.9740   -3.4790 H       1  UNL1        0.0648
@<TRIPOS>BOND
     1     1     2    1
     2     1    34    1
     3     1    35    1
     4     1    36    1
     5     2     3   ar
     6     2    33   ar
     7     3     4    2
     8     3     5   ar
     9     5     6   ar
    10     5    37    1
    11     6     7    1
    12     6    21   ar
    13     7     8    1
    14     7    38    1
    15     8     9   ar
    16     8    19   ar
    17     9    10   ar
    18     9    39    1
    19    10    11    1
    20    10    17   ar
    21    11    12    2
    22    11    13   am
    23    13    14    1
    24    13    40    1
    25    14    15    1
    26    14    16    1
    27    14    41    1
    28    15    16    1
    29    15    42    1
    30    15    43    1
    31    16    44    1
    32    16    45    1
    33    17    18   ar
    34    17    46    1
    35    18    19   ar
    36    18    47    1
    37    19    20    1
    38    21    22   ar
    39    21    33   ar
    40    22    23   ar
    41    22    48    1
    42    23    24   ar
    43    24    25    1
    44    24    33   ar
    45    25    26   ar
    46    25    31   ar
    47    26    27   ar
    48    26    49    1
    49    27    28    1
    50    27    29   ar
    51    29    30   ar
    52    29    50    1
    53    30    31   ar
    54    30    51    1
    55    31    32    1
@<TRIPOS>MOLECULE
AD3CC00128170-I00-C00
 54 58 0 0 0
SMALL
GASTEIGER

@<TRIPOS>ATOM
      1 C           3.4270    2.2640    1.2340 C.3     1  UNL1       -0.0469
      2 C           2.2820    2.4840    2.2160 C.3     1  UNL1        0.0252
      3 N           0.9990    2.0650    1.6560 N.ar    1  UNL1       -0.2929
      4 C           0.7230    0.6900    1.6840 C.ar    1  UNL1        0.2546
      5 O           1.3960   -0.1370    2.3010 O.2     1  UNL1       -0.2676
      6 C          -0.4380    0.1780    0.8960 C.ar    1  UNL1        0.0249
      7 C          -1.1340    0.9470    0.0360 C.ar    1  UNL1        0.0488
      8 N          -2.2020    0.5240   -0.7390 N.pl3   1  UNL1       -0.3126
      9 C          -2.5920   -0.7790   -1.1190 C.ar    1  UNL1        0.0506
     10 C          -1.6530   -1.8000   -1.3380 C.ar    1  UNL1       -0.0270
     11 C          -2.0610   -3.0940   -1.6920 C.ar    1  UNL1        0.0385
     12 C          -1.0810   -4.1880   -1.9330 C.2     1  UNL1        0.2443
     13 O          -1.3580   -5.0880   -2.7190 O.2     1  UNL1       -0.2702
     14 N           0.0940   -4.1260   -1.2080 N.am    1  UNL1       -0.3085
     15 C           1.1070   -5.1270   -1.3230 C.3     1  UNL1        0.0235
     16 C           2.3190   -4.8840   -2.1780 C.3     1  UNL1       -0.0328
     17 C           2.4550   -4.9280   -0.6850 C.3     1  UNL1       -0.0328
     18 C          -3.4220   -3.3720   -1.8640 C.ar    1  UNL1       -0.0481
     19 C          -4.3710   -2.3700   -1.6640 C.ar    1  UNL1       -0.0409
     20 C          -3.9580   -1.0880   -1.2940 C.ar    1  UNL1        0.0621
     21 CL         -5.1700    0.1260   -1.0590 Cl      1  UNL1       -0.0816
     22 C          -0.7750    2.3280   -0.0140 C.ar    1  UNL1        0.0586
     23 C          -1.1200    3.3700   -0.8780 C.ar    1  UNL1        0.0608
     24 N          -0.4820    4.5020   -0.5700 N.ar    1  UNL1       -0.1721
     25 N           0.1400    4.2230    0.6190 N.ar    1  UNL1       -0.2128
     26 C           0.4840    5.3120    1.4590 C.ar    1  UNL1        0.1029
     27 C           0.7850    6.5570    0.8810 C.ar    1  UNL1       -0.0307
     28 C           1.0900    7.6500    1.6960 C.ar    1  UNL1       -0.0243
     29 C           1.0670    7.5040    3.0780 C.ar    1  UNL1        0.1263
     30 F           1.3550    8.5550    3.8560 F       1  UNL1       -0.2054
     31 C           0.7340    6.2910    3.6650 C.ar    1  UNL1        0.0109
     32 C           0.4320    5.2030    2.8510 C.ar    1  UNL1        0.1514
     33 F           0.0440    4.0670    3.4480 F       1  UNL1       -0.2032
     34 C           0.1810    2.8470    0.8300 C.ar    1  UNL1        0.1488
     35 H           4.3750    2.5800    1.6810 H       1  UNL1        0.0247
     36 H           3.5160    1.2100    0.9540 H       1  UNL1        0.0247
     37 H           3.2720    2.8420    0.3170 H       1  UNL1        0.0247
     38 H           2.2650    3.5330    2.5030 H       1  UNL1        0.0490
     39 H           2.4760    1.9120    3.1310 H       1  UNL1        0.0490
     40 H          -0.6610   -0.8670    1.0630 H       1  UNL1        0.0691
     41 H          -2.9540    1.2080   -0.8210 H       1  UNL1        0.1522
     42 H          -0.5930   -1.5660   -1.2910 H       1  UNL1        0.0644
     43 H           0.1830   -3.4570   -0.4530 H       1  UNL1        0.1493
     44 H           0.7100   -6.1410   -1.3160 H       1  UNL1        0.0498
     45 H           2.4140   -3.9260   -2.6740 H       1  UNL1        0.0284
     46 H           2.7000   -5.7200   -2.7540 H       1  UNL1        0.0284
     47 H           2.6600   -3.9980   -0.1690 H       1  UNL1        0.0284
     48 H           2.9370   -5.7940   -0.2450 H       1  UNL1        0.0284
     49 H          -3.7440   -4.3700   -2.1590 H       1  UNL1        0.0625
     50 H          -5.4260   -2.5940   -1.8020 H       1  UNL1        0.0633
     51 H          -1.7770    3.3580   -1.7390 H       1  UNL1        0.0855
     52 H           0.7960    6.6840   -0.2010 H       1  UNL1        0.0640
     53 H           1.3360    8.6140    1.2600 H       1  UNL1        0.0647
     54 H           0.6920    6.1980    4.7440 H       1  UNL1        0.0676
@<TRIPOS>BOND
     1     1     2    1
     2     1    35    1
     3     1    36    1
     4     1    37    1
     5     2     3    1
     6     2    38    1
     7     2    39    1
     8     3     4   ar
     9     3    34   ar
    10     4     5    2
    11     4     6   ar
    12     6     7   ar
    13     6    40    1
    14     7     8    1
    15     7    22   ar
    16     8     9    1
    17     8    41    1
    18     9    10   ar
    19     9    20   ar
    20    10    11   ar
    21    10    42    1
    22    11    12    1
    23    11    18   ar
    24    12    13    2
    25    12    14   am
    26    14    15    1
    27    14    43    1
    28    15    16    1
    29    15    17    1
    30    15    44    1
    31    16    17    1
    32    16    45    1
    33    16    46    1
    34    17    47    1
    35    17    48    1
    36    18    19   ar
    37    18    49    1
    38    19    20   ar
    39    19    50    1
    40    20    21    1
    41    22    23   ar
    42    22    34   ar
    43    23    24   ar
    44    23    51    1
    45    24    25   ar
    46    25    26    1
    47    25    34   ar
    48    26    27   ar
    49    26    32   ar
    50    27    28   ar
    51    27    52    1
    52    28    29   ar
    53    28    53    1
    54    29    30    1
    55    29    31   ar
    56    31    32   ar
    57    31    54    1
    58    32    33    1
@<TRIPOS>MOLECULE
AD3CC00128307-I00-C00
 51 54 0 0 0
SMALL
GASTEIGER

@<TRIPOS>ATOM
      1 C           2.4140    2.5890    4.2890 C.3     1  UNL1        0.0622
      2 O           3.0490    2.5410    3.0150 O.3     1  UNL1       -0.2829
      3 N           2.0430    2.5410    2.0150 N.am    1  UNL1       -0.1909
      4 C           1.8820    3.7670    1.3930 C.2     1  UNL1        0.2667
      5 O           2.3350    4.8310    1.8010 O.2     1  UNL1       -0.2681
      6 C           1.1200    3.7360    0.1140 C.ar    1  UNL1        0.0405
      7 C           1.3930    4.7070   -0.8510 C.ar    1  UNL1       -0.0492
      8 C           0.7050    4.6980   -2.0640 C.ar    1  UNL1       -0.0564
      9 C          -0.2660    3.7190   -2.3290 C.ar    1  UNL1       -0.0293
     10 C          -0.9690    3.7310   -3.6610 C.3     1  UNL1       -0.0380
     11 C          -0.5660    2.7450   -1.3500 C.ar    1  UNL1        0.0350
     12 N          -1.5600    1.7650   -1.6300 N.pl3   1  UNL1       -0.3135
     13 C          -1.7910    0.6100   -0.8880 C.ar    1  UNL1        0.0488
     14 C          -2.9960    0.3330   -0.3550 C.ar    1  UNL1        0.0249
     15 C          -3.2410   -0.8750    0.4910 C.ar    1  UNL1        0.2544
     16 O          -4.3470   -0.9910    1.0180 O.2     1  UNL1       -0.2676
     17 N          -2.1960   -1.7910    0.6620 N.ar    1  UNL1       -0.2957
     18 C          -2.4050   -2.8450    1.6370 C.3     1  UNL1        0.0166
     19 C          -1.0110   -1.5390   -0.0370 C.ar    1  UNL1        0.1486
     20 C          -0.7660   -0.3720   -0.7260 C.ar    1  UNL1        0.0586
     21 C           0.5790   -0.4260   -1.1010 C.ar    1  UNL1        0.0608
     22 N           1.1780   -1.5260   -0.6360 N.ar    1  UNL1       -0.1721
     23 N           0.1450   -2.3040   -0.1850 N.ar    1  UNL1       -0.2128
     24 C           0.3750   -3.6950   -0.0440 C.ar    1  UNL1        0.1029
     25 C           1.6630   -4.1480    0.2890 C.ar    1  UNL1       -0.0307
     26 C           1.9120   -5.5170    0.4110 C.ar    1  UNL1       -0.0243
     27 C           0.8860   -6.4250    0.1740 C.ar    1  UNL1        0.1263
     28 F           1.1280   -7.7370    0.2870 F       1  UNL1       -0.2054
     29 C          -0.3800   -5.9940   -0.1980 C.ar    1  UNL1        0.0109
     30 C          -0.6260   -4.6290   -0.3180 C.ar    1  UNL1        0.1514
     31 F          -1.8250   -4.2500   -0.7800 F       1  UNL1       -0.2032
     32 C           0.1300    2.7750   -0.1290 C.ar    1  UNL1       -0.0281
     33 H           1.7600    1.7210    4.4220 H       1  UNL1        0.0547
     34 H           1.8410    3.5150    4.4000 H       1  UNL1        0.0547
     35 H           3.1890    2.5640    5.0600 H       1  UNL1        0.0547
     36 H           2.0470    1.7070    1.4370 H       1  UNL1        0.1828
     37 H           2.1460    5.4710   -0.6630 H       1  UNL1        0.0625
     38 H           0.9380    5.4600   -2.8050 H       1  UNL1        0.0621
     39 H          -2.0300    3.9670   -3.5260 H       1  UNL1        0.0278
     40 H          -0.8700    2.7590   -4.1550 H       1  UNL1        0.0278
     41 H          -0.5430    4.4830   -4.3330 H       1  UNL1        0.0278
     42 H          -2.4240    2.2460   -1.8810 H       1  UNL1        0.1522
     43 H          -3.8440    1.0010   -0.4480 H       1  UNL1        0.0691
     44 H          -2.9970   -3.6440    1.1850 H       1  UNL1        0.0457
     45 H          -2.9660   -2.4540    2.4930 H       1  UNL1        0.0457
     46 H          -1.4540   -3.2270    2.0160 H       1  UNL1        0.0457
     47 H           1.1660    0.3010   -1.6480 H       1  UNL1        0.0855
     48 H           2.4750   -3.4440    0.4680 H       1  UNL1        0.0640
     49 H           2.8990   -5.8790    0.6820 H       1  UNL1        0.0647
     50 H          -1.1610   -6.7140   -0.4170 H       1  UNL1        0.0676
     51 H          -0.1250    2.0660    0.6530 H       1  UNL1        0.0644
@<TRIPOS>BOND
     1     1     2    1
     2     1    33    1
     3     1    34    1
     4     1    35    1
     5     2     3    1
     6     3     4   am
     7     3    36    1
     8     4     5    2
     9     4     6    1
    10     6     7   ar
    11     6    32   ar
    12     7     8   ar
    13     7    37    1
    14     8     9   ar
    15     8    38    1
    16     9    10    1
    17     9    11   ar
    18    10    39    1
    19    10    40    1
    20    10    41    1
    21    11    12    1
    22    11    32   ar
    23    12    13    1
    24    12    42    1
    25    13    14   ar
    26    13    20   ar
    27    14    15   ar
    28    14    43    1
    29    15    16    2
    30    15    17   ar
    31    17    18    1
    32    17    19   ar
    33    18    44    1
    34    18    45    1
    35    18    46    1
    36    19    20   ar
    37    19    23   ar
    38    20    21   ar
    39    21    22   ar
    40    21    47    1
    41    22    23   ar
    42    23    24    1
    43    24    25   ar
    44    24    30   ar
    45    25    26   ar
    46    25    48    1
    47    26    27   ar
    48    26    49    1
    49    27    28    1
    50    27    29   ar
    51    29    30   ar
    52    29    50    1
    53    30    31    1
    54    32    51    1
@<TRIPOS>MOLECULE
AD3CC00128625-I00-C00
 41 44 0 0 0
SMALL
GASTEIGER

@<TRIPOS>ATOM
      1 O           3.5420   -0.3440   -0.3150 O.2     1  UNL1       -0.2866
      2 C           2.5030    0.0640   -0.8340 C.2     1  UNL1        0.1938
      3 C           1.2330    0.0360   -0.0500 C.ar    1  UNL1        0.0256
      4 C           1.2050   -0.9120    0.9910 C.ar    1  UNL1       -0.0489
      5 C           0.0700   -1.0940    1.7840 C.ar    1  UNL1       -0.0399
      6 C          -1.0820   -0.3410    1.5620 C.ar    1  UNL1        0.0317
      7 N          -2.1880   -0.5360    2.4060 N.pl3   1  UNL1       -0.3122
      8 C          -3.3000    0.2710    2.7150 C.ar    1  UNL1        0.0672
      9 C          -3.2570    1.6700    2.6920 C.ar    1  UNL1       -0.0350
     10 C          -4.3980    2.4220    2.9910 C.ar    1  UNL1       -0.0245
     11 C          -5.5860    1.7770    3.3160 C.ar    1  UNL1        0.1262
     12 F          -6.6740    2.5040    3.6010 F       1  UNL1       -0.2054
     13 C          -5.6590    0.3930    3.3570 C.ar    1  UNL1        0.0106
     14 C          -4.5180   -0.3430    3.0590 C.ar    1  UNL1        0.1471
     15 F          -4.5870   -1.6840    3.1010 F       1  UNL1       -0.2035
     16 C          -1.0460    0.6140    0.5410 C.ar    1  UNL1       -0.0367
     17 C           0.0990    0.8330   -0.2680 C.ar    1  UNL1       -0.0345
     18 C          -0.0370    1.9180   -1.3100 C.3     1  UNL1       -0.0229
     19 C           1.2550    2.5800   -1.7680 C.3     1  UNL1       -0.0230
     20 C           2.0000    1.6760   -2.7060 C.ar    1  UNL1       -0.0360
     21 C           2.1360    2.0220   -4.0610 C.ar    1  UNL1       -0.0544
     22 C           2.8380    1.1950   -4.9410 C.ar    1  UNL1       -0.0199
     23 C           3.4130    0.0230   -4.4650 C.ar    1  UNL1        0.1176
     24 O           4.1120   -0.8100   -5.2870 O.3     1  UNL1       -0.5067
     25 C           3.2910   -0.3350   -3.1290 C.ar    1  UNL1       -0.0091
     26 C           2.5710    0.4830   -2.2490 C.ar    1  UNL1        0.0289
     27 H           2.0800   -1.5300    1.1900 H       1  UNL1        0.0625
     28 H           0.1020   -1.8300    2.5840 H       1  UNL1        0.0636
     29 H          -2.3180   -1.5070    2.6830 H       1  UNL1        0.1522
     30 H          -2.3280    2.1910    2.4750 H       1  UNL1        0.0638
     31 H          -4.3620    3.5080    2.9800 H       1  UNL1        0.0647
     32 H          -6.5850   -0.1050    3.6160 H       1  UNL1        0.0675
     33 H          -1.9430    1.1960    0.3360 H       1  UNL1        0.0639
     34 H          -0.6610    2.7170   -0.8850 H       1  UNL1        0.0317
     35 H          -0.5880    1.5080   -2.1670 H       1  UNL1        0.0317
     36 H           1.8950    2.8590   -0.9210 H       1  UNL1        0.0317
     37 H           1.0070    3.5170   -2.2830 H       1  UNL1        0.0317
     38 H           1.6990    2.9430   -4.4410 H       1  UNL1        0.0622
     39 H           2.9290    1.4830   -5.9830 H       1  UNL1        0.0654
     40 H           4.1510   -0.4180   -6.1740 H       1  UNL1        0.2921
     41 H           3.7610   -1.2490   -2.7700 H       1  UNL1        0.0661
@<TRIPOS>BOND
     1     1     2    2
     2     2     3    1
     3     2    26    1
     4     3     4   ar
     5     3    17   ar
     6     4     5   ar
     7     4    27    1
     8     5     6   ar
     9     5    28    1
    10     6     7    1
    11     6    16   ar
    12     7     8    1
    13     7    29    1
    14     8     9   ar
    15     8    14   ar
    16     9    10   ar
    17     9    30    1
    18    10    11   ar
    19    10    31    1
    20    11    12    1
    21    11    13   ar
    22    13    14   ar
    23    13    32    1
    24    14    15    1
    25    16    17   ar
    26    16    33    1
    27    17    18    1
    28    18    19    1
    29    18    34    1
    30    18    35    1
    31    19    20    1
    32    19    36    1
    33    19    37    1
    34    20    21   ar
    35    20    26   ar
    36    21    22   ar
    37    21    38    1
    38    22    23   ar
    39    22    39    1
    40    23    24    1
    41    23    25   ar
    42    24    40    1
    43    25    26   ar
    44    25    41    1
@<TRIPOS>MOLECULE
AD3CC00128649-I00-C01
 68 72 0 0 0
SMALL
GASTEIGER

@<TRIPOS>ATOM
      1 C          -5.6480    1.1950    3.0010 C.3     1  UNL1       -0.0217
      2 C          -4.3060    1.4970    3.6060 C.ar    1  UNL1        0.0472
      3 N          -4.3310    2.1540    4.7940 N.ar    1  UNL1       -0.2582
      4 C          -3.1470    2.4500    5.3760 C.ar    1  UNL1        0.0471
      5 C          -1.9140    2.1240    4.8350 C.ar    1  UNL1        0.0915
      6 C          -0.7280    2.4730    5.5510 C.1     1  UNL1        0.1026
      7 N           0.2020    2.7620    6.1830 N.1     1  UNL1       -0.1908
      8 C          -1.8870    1.4470    3.6080 C.ar    1  UNL1        0.0593
      9 N          -0.6310    1.1010    3.0210 N.pl3   1  UNL1       -0.3127
     10 C          -0.0760    1.7140    1.8500 C.ar    1  UNL1        0.0350
     11 C          -0.5240    2.9740    1.4250 C.ar    1  UNL1       -0.0383
     12 C           0.0090    3.6090    0.3010 C.ar    1  UNL1       -0.0360
     13 C           1.0410    2.9590   -0.3740 C.ar    1  UNL1        0.0468
     14 N           1.7330    3.3460   -1.5000 N.ar    1  UNL1       -0.3606
     15 C           2.6880    2.4160   -1.8080 C.ar    1  UNL1        0.0027
     16 C           2.6200    1.4190   -0.8630 C.ar    1  UNL1       -0.0364
     17 C           1.5640    1.7340    0.0430 C.ar    1  UNL1        0.0043
     18 C           1.0180    1.0900    1.1860 C.ar    1  UNL1       -0.0202
     19 C           1.5630   -0.2250    1.6830 C.3     1  UNL1       -0.0373
     20 C          -3.1110    1.1200    2.9750 C.ar    1  UNL1        0.0184
     21 C          -3.1300    0.4200    1.6800 C.2     1  UNL1       -0.0505
     22 C          -2.9160   -0.9010    1.5830 C.2     1  UNL1       -0.0539
     23 C          -2.8790   -1.6380    0.3110 C.ar    1  UNL1       -0.0232
     24 C          -3.2330   -2.9960    0.3110 C.ar    1  UNL1       -0.0545
     25 C          -3.1890   -3.7530   -0.8630 C.ar    1  UNL1       -0.0594
     26 C          -2.7770   -3.1640   -2.0550 C.ar    1  UNL1       -0.0353
     27 C          -2.4000   -1.8180   -2.0580 C.ar    1  UNL1        0.1060
     28 S          -1.9070   -1.0710   -3.5930 S.O2    1  UNL1        0.0609
     29 O          -2.7310   -1.6540   -4.6310 O.2     1  UNL1       -0.1528
     30 O          -1.8460    0.3640   -3.4110 O.2     1  UNL1       -0.1528
     31 N          -0.3160   -1.6500   -3.7940 N.3     1  UNL1       -0.1741
     32 C           0.6770   -1.1230   -2.8030 C.3     1  UNL1        0.0333
     33 C           2.0390   -1.8190   -2.9990 C.3     1  UNL1        0.0131
     34 N           2.5690   -1.6340   -4.3650 N.3     1  UNL1       -0.3028
     35 C           3.8460   -2.3260   -4.5240 C.3     1  UNL1       -0.0127
     36 C           1.5800   -2.1260   -5.3460 C.3     1  UNL1        0.0131
     37 C           0.2050   -1.4470   -5.1850 C.3     1  UNL1        0.0333
     38 C          -2.4510   -1.0520   -0.8880 C.ar    1  UNL1       -0.0282
     39 H          -5.7550    1.7020    2.0360 H       1  UNL1        0.0293
     40 H          -5.7760    0.1170    2.8650 H       1  UNL1        0.0293
     41 H          -6.4540    1.5470    3.6560 H       1  UNL1        0.0293
     42 H          -3.2300    2.9740    6.3260 H       1  UNL1        0.0843
     43 H          -0.6230    0.0930    2.8620 H       1  UNL1        0.1522
     44 H          -1.3170    3.4880    1.9630 H       1  UNL1        0.0637
     45 H          -0.3670    4.5740   -0.0230 H       1  UNL1        0.0639
     46 H           1.5520    4.1950   -2.0190 H       1  UNL1        0.1653
     47 H           3.3320    2.5430   -2.6670 H       1  UNL1        0.0807
     48 H           3.2630    0.5480   -0.8340 H       1  UNL1        0.0639
     49 H           1.8210   -0.1570    2.7440 H       1  UNL1        0.0278
     50 H           0.8200   -1.0150    1.5390 H       1  UNL1        0.0278
     51 H           2.4700   -0.5200    1.1480 H       1  UNL1        0.0278
     52 H          -3.3160    1.0520    0.8150 H       1  UNL1        0.0625
     53 H          -2.7620   -1.4990    2.4800 H       1  UNL1        0.0624
     54 H          -3.5630   -3.4780    1.2290 H       1  UNL1        0.0623
     55 H          -3.4820   -4.8000   -0.8470 H       1  UNL1        0.0618
     56 H          -2.7510   -3.7500   -2.9710 H       1  UNL1        0.0637
     57 H           0.7880   -0.0400   -2.9260 H       1  UNL1        0.0456
     58 H           0.3340   -1.3270   -1.7840 H       1  UNL1        0.0456
     59 H           2.7470   -1.4050   -2.2730 H       1  UNL1        0.0439
     60 H           1.9300   -2.8880   -2.7720 H       1  UNL1        0.0439
     61 H           4.2500   -2.1640   -5.5290 H       1  UNL1        0.0391
     62 H           3.7580   -3.4050   -4.3580 H       1  UNL1        0.0391
     63 H           4.5860   -1.9300   -3.8190 H       1  UNL1        0.0391
     64 H           1.9420   -1.9290   -6.3630 H       1  UNL1        0.0439
     65 H           1.4550   -3.2120   -5.2460 H       1  UNL1        0.0439
     66 H           0.2850   -0.3750   -5.4010 H       1  UNL1        0.0456
     67 H          -0.4820   -1.8980   -5.9080 H       1  UNL1        0.0456
     68 H          -2.1440   -0.0080   -0.9170 H       1  UNL1        0.0643
@<TRIPOS>BOND
     1     1     2    1
     2     1    39    1
     3     1    40    1
     4     1    41    1
     5     2     3   ar
     6     2    20   ar
     7     3     4   ar
     8     4     5   ar
     9     4    42    1
    10     5     6    1
    11     5     8   ar
    12     6     7    3
    13     8     9    1
    14     8    20   ar
    15     9    10    1
    16     9    43    1
    17    10    11   ar
    18    10    18   ar
    19    11    12   ar
    20    11    44    1
    21    12    13   ar
    22    12    45    1
    23    13    14   ar
    24    13    17   ar
    25    14    15   ar
    26    14    46    1
    27    15    16   ar
    28    15    47    1
    29    16    17   ar
    30    16    48    1
    31    17    18   ar
    32    18    19    1
    33    19    49    1
    34    19    50    1
    35    19    51    1
    36    20    21    1
    37    21    22    2
    38    21    52    1
    39    22    23    1
    40    22    53    1
    41    23    24   ar
    42    23    38   ar
    43    24    25   ar
    44    24    54    1
    45    25    26   ar
    46    25    55    1
    47    26    27   ar
    48    26    56    1
    49    28    27    1
    50    27    38   ar
    51    28    29    2
    52    28    30    2
    53    28    31    1
    54    31    32    1
    55    31    37    1
    56    32    33    1
    57    32    57    1
    58    32    58    1
    59    33    34    1
    60    33    59    1
    61    33    60    1
    62    34    35    1
    63    34    36    1
    64    35    61    1
    65    35    62    1
    66    35    63    1
    67    36    37    1
    68    36    64    1
    69    36    65    1
    70    37    66    1
    71    37    67    1
    72    38    68    1
@<TRIPOS>MOLECULE
AD3CC00130423-I00-C00
 53 57 0 0 0
SMALL
GASTEIGER

@<TRIPOS>ATOM
      1 C           0.8450   -1.9170   -4.0460 C.3     1  UNL1       -0.0364
      2 C           1.5510   -2.3160   -2.7800 C.ar    1  UNL1       -0.0074
      3 C           2.2960   -3.5040   -2.7670 C.ar    1  UNL1        0.1276
      4 F           2.3760   -4.2510   -3.8780 F       1  UNL1       -0.2052
      5 C           2.9580   -3.9450   -1.6280 C.ar    1  UNL1       -0.0140
      6 C           2.8800   -3.1920   -0.4580 C.ar    1  UNL1        0.0400
      7 C           3.5680   -3.6930    0.7580 C.2     1  UNL1        0.2444
      8 O           4.6090   -4.3310    0.6480 O.2     1  UNL1       -0.2702
      9 N           2.9410   -3.4170    1.9580 N.am    1  UNL1       -0.3085
     10 C           3.4620   -3.8790    3.2050 C.3     1  UNL1        0.0235
     11 C           2.8960   -3.3760    4.5050 C.3     1  UNL1       -0.0328
     12 C           4.2720   -2.9600    4.0770 C.3     1  UNL1       -0.0328
     13 C           2.1830   -1.9780   -0.4550 C.ar    1  UNL1       -0.0413
     14 C           1.5180   -1.5280   -1.6110 C.ar    1  UNL1       -0.0063
     15 C           0.8110   -0.2310   -1.5390 C.ar    1  UNL1        0.0476
     16 C           1.2820    0.8120   -2.2340 C.ar    1  UNL1       -0.0381
     17 C           0.6000    2.1000   -2.2040 C.ar    1  UNL1        0.0213
     18 C           1.1190    3.1570   -2.9370 C.ar    1  UNL1        0.0591
     19 N           0.5400    4.3660   -2.9780 N.ar    1  UNL1       -0.1564
     20 N          -0.6240    4.5510   -2.3120 N.ar    1  UNL1       -0.1471
     21 C          -1.1940    3.5440   -1.5910 C.ar    1  UNL1        0.1201
     22 C          -2.5030    3.9540   -1.0780 C.ar    1  UNL1        0.0395
     23 C          -2.6120    4.9060   -0.0470 C.ar    1  UNL1       -0.0470
     24 C          -3.8660    5.3270    0.4030 C.ar    1  UNL1       -0.0257
     25 C          -5.0160    4.8130   -0.1860 C.ar    1  UNL1        0.1262
     26 F          -6.2160    5.2180    0.2490 F       1  UNL1       -0.2054
     27 C          -4.9400    3.8900   -1.2190 C.ar    1  UNL1        0.0095
     28 C          -3.6870    3.4760   -1.6610 C.ar    1  UNL1        0.1354
     29 F          -3.6260    2.5820   -2.6600 F       1  UNL1       -0.2047
     30 C          -0.5760    2.2850   -1.4620 C.ar    1  UNL1        0.0812
     31 N          -1.0140    1.1860   -0.6330 N.ar    1  UNL1       -0.3087
     32 C          -2.0990    1.3400    0.3210 C.3     1  UNL1        0.0154
     33 C          -0.3780   -0.0590   -0.6440 C.ar    1  UNL1        0.2593
     34 O          -0.7360   -1.0070    0.0570 O.2     1  UNL1       -0.2670
     35 H           1.4420   -1.1820   -4.5950 H       1  UNL1        0.0279
     36 H          -0.1420   -1.4970   -3.8310 H       1  UNL1        0.0279
     37 H           0.6790   -2.7790   -4.7000 H       1  UNL1        0.0279
     38 H           3.5180   -4.8750   -1.6580 H       1  UNL1        0.0654
     39 H           1.9930   -3.0580    1.9460 H       1  UNL1        0.1493
     40 H           3.7690   -4.9240    3.1800 H       1  UNL1        0.0498
     41 H           2.1130   -2.6280    4.4810 H       1  UNL1        0.0284
     42 H           2.8110   -4.0810    5.3240 H       1  UNL1        0.0284
     43 H           4.4220   -1.9400    3.7460 H       1  UNL1        0.0284
     44 H           5.1230   -3.3870    4.5960 H       1  UNL1        0.0284
     45 H           2.1630   -1.3660    0.4440 H       1  UNL1        0.0631
     46 H           2.1690    0.7170   -2.8550 H       1  UNL1        0.0632
     47 H           2.0290    3.0720   -3.5220 H       1  UNL1        0.0855
     48 H          -1.7140    5.3310    0.4010 H       1  UNL1        0.0626
     49 H          -3.9520    6.0600    1.2000 H       1  UNL1        0.0646
     50 H          -5.8410    3.5020   -1.6790 H       1  UNL1        0.0675
     51 H          -3.0540    1.3120   -0.2070 H       1  UNL1        0.0457
     52 H          -1.9720    2.2600    0.8960 H       1  UNL1        0.0457
     53 H          -2.1180    0.5270    1.0540 H       1  UNL1        0.0457
@<TRIPOS>BOND
     1     1     2    1
     2     1    35    1
     3     1    36    1
     4     1    37    1
     5     2     3   ar
     6     2    14   ar
     7     3     4    1
     8     3     5   ar
     9     5     6   ar
    10     5    38    1
    11     6     7    1
    12     6    13   ar
    13     7     8    2
    14     7     9   am
    15     9    10    1
    16     9    39    1
    17    10    11    1
    18    10    12    1
    19    10    40    1
    20    11    12    1
    21    11    41    1
    22    11    42    1
    23    12    43    1
    24    12    44    1
    25    13    14   ar
    26    13    45    1
    27    14    15    1
    28    15    16   ar
    29    15    33   ar
    30    16    17   ar
    31    16    46    1
    32    17    18   ar
    33    17    30   ar
    34    18    19   ar
    35    18    47    1
    36    19    20   ar
    37    20    21   ar
    38    21    22    1
    39    21    30   ar
    40    22    23   ar
    41    22    28   ar
    42    23    24   ar
    43    23    48    1
    44    24    25   ar
    45    24    49    1
    46    25    26    1
    47    25    27   ar
    48    27    28   ar
    49    27    50    1
    50    28    29    1
    51    30    31   ar
    52    31    32    1
    53    31    33   ar
    54    32    51    1
    55    32    52    1
    56    32    53    1
    57    33    34    2
@<TRIPOS>MOLECULE
AD3CC00130427-I00-C00
 52 56 0 0 0
SMALL
GASTEIGER

@<TRIPOS>ATOM
      1 C           1.2510    0.9330    2.5730 C.3     1  UNL1       -0.0377
      2 C           1.1130   -0.5060    2.1710 C.ar    1  UNL1       -0.0244
      3 C           1.2440   -1.5050    3.1340 C.ar    1  UNL1        0.0319
      4 N           1.1260   -2.8280    2.8880 N.ar    1  UNL1       -0.2501
      5 C           0.8410   -3.1780    1.6040 C.ar    1  UNL1        0.1259
      6 C           0.7140   -4.6450    1.3300 C.2     1  UNL1        0.2626
      7 O           0.5070   -5.0670    0.1970 O.2     1  UNL1       -0.2685
      8 N           0.8620   -5.4380    2.4510 N.am    1  UNL1       -0.3072
      9 C           0.7620   -6.8570    2.4270 C.3     1  UNL1        0.0236
     10 C           0.7520   -7.6480    3.7060 C.3     1  UNL1       -0.0328
     11 C          -0.4980   -7.5390    2.8820 C.3     1  UNL1       -0.0328
     12 C           0.6750   -2.2680    0.5720 C.ar    1  UNL1       -0.0230
     13 C           0.8090   -0.9050    0.8570 C.ar    1  UNL1       -0.0062
     14 C           0.6320    0.0670   -0.2390 C.ar    1  UNL1        0.0477
     15 C           1.5980    0.1920   -1.1580 C.ar    1  UNL1       -0.0381
     16 C           1.4730    1.1550   -2.2440 C.ar    1  UNL1        0.0213
     17 C           2.4880    1.2470   -3.1860 C.ar    1  UNL1        0.0591
     18 N           2.4560    2.1170   -4.2050 N.ar    1  UNL1       -0.1564
     19 N           1.4090    2.9710   -4.2980 N.ar    1  UNL1       -0.1471
     20 C           0.3910    2.9410   -3.3920 C.ar    1  UNL1        0.1201
     21 C          -0.5470    4.0390   -3.6380 C.ar    1  UNL1        0.0395
     22 C          -1.4080    4.0190   -4.7520 C.ar    1  UNL1       -0.0470
     23 C          -2.2660    5.0920   -5.0050 C.ar    1  UNL1       -0.0257
     24 C          -2.2570    6.1960   -4.1590 C.ar    1  UNL1        0.1262
     25 F          -3.0810    7.2220   -4.4060 F       1  UNL1       -0.2054
     26 C          -1.4040    6.2520   -3.0670 C.ar    1  UNL1        0.0095
     27 C          -0.5520    5.1800   -2.8210 C.ar    1  UNL1        0.1354
     28 F           0.2660    5.2450   -1.7600 F       1  UNL1       -0.2047
     29 C           0.3550    1.9960   -2.3490 C.ar    1  UNL1        0.0812
     30 N          -0.7150    1.7960   -1.3990 N.ar    1  UNL1       -0.3087
     31 C          -1.9890    2.4810   -1.5300 C.3     1  UNL1        0.0154
     32 C          -0.6120    0.8930   -0.3360 C.ar    1  UNL1        0.2593
     33 O          -1.4940    0.7420    0.5100 O.2     1  UNL1       -0.2670
     34 H           1.7320    1.0270    3.5530 H       1  UNL1        0.0278
     35 H           1.8760    1.4810    1.8600 H       1  UNL1        0.0278
     36 H           0.2670    1.4070    2.6330 H       1  UNL1        0.0278
     37 H           1.4560   -1.2580    4.1720 H       1  UNL1        0.0832
     38 H           1.0370   -4.9470    3.3250 H       1  UNL1        0.1493
     39 H           1.2820   -7.3060    1.5830 H       1  UNL1        0.0498
     40 H           1.2730   -8.5980    3.7140 H       1  UNL1        0.0284
     41 H           0.7830   -7.1160    4.6490 H       1  UNL1        0.0284
     42 H          -1.3070   -6.9230    3.2570 H       1  UNL1        0.0284
     43 H          -0.8240   -8.4100    2.3260 H       1  UNL1        0.0284
     44 H           0.4360   -2.6180   -0.4280 H       1  UNL1        0.0647
     45 H           2.5040   -0.4050   -1.1030 H       1  UNL1        0.0632
     46 H           3.3690    0.6160   -3.1570 H       1  UNL1        0.0855
     47 H          -1.4030    3.1680   -5.4310 H       1  UNL1        0.0626
     48 H          -2.9330    5.0790   -5.8630 H       1  UNL1        0.0646
     49 H          -1.3970    7.1200   -2.4180 H       1  UNL1        0.0675
     50 H          -2.7660    2.0180   -0.9130 H       1  UNL1        0.0457
     51 H          -1.8840    3.5120   -1.1880 H       1  UNL1        0.0457
     52 H          -2.3480    2.4210   -2.5600 H       1  UNL1        0.0457
@<TRIPOS>BOND
     1     1     2    1
     2     1    34    1
     3     1    35    1
     4     1    36    1
     5     2     3   ar
     6     2    13   ar
     7     3     4   ar
     8     3    37    1
     9     4     5   ar
    10     5     6    1
    11     5    12   ar
    12     6     7    2
    13     6     8   am
    14     8     9    1
    15     8    38    1
    16     9    10    1
    17     9    11    1
    18     9    39    1
    19    10    11    1
    20    10    40    1
    21    10    41    1
    22    11    42    1
    23    11    43    1
    24    12    13   ar
    25    12    44    1
    26    13    14    1
    27    14    15   ar
    28    14    32   ar
    29    15    16   ar
    30    15    45    1
    31    16    17   ar
    32    16    29   ar
    33    17    18   ar
    34    17    46    1
    35    18    19   ar
    36    19    20   ar
    37    20    21    1
    38    20    29   ar
    39    21    22   ar
    40    21    27   ar
    41    22    23   ar
    42    22    47    1
    43    23    24   ar
    44    23    48    1
    45    24    25    1
    46    24    26   ar
    47    26    27   ar
    48    26    49    1
    49    27    28    1
    50    29    30   ar
    51    30    31    1
    52    30    32   ar
    53    31    50    1
    54    31    51    1
    55    31    52    1
    56    32    33    2
@<TRIPOS>MOLECULE
AD3CC00130846-I00-C00
 39 42 0 0 0
SMALL
GASTEIGER

@<TRIPOS>ATOM
      1 C          -3.1930   -0.4360    3.0720 C.3     1  UNL1       -0.0217
      2 C          -3.3790    1.0500    2.9370 C.ar    1  UNL1        0.0474
      3 N          -4.6640    1.4700    2.7950 N.ar    1  UNL1       -0.2595
      4 C          -4.8850    2.7990    2.7000 C.ar    1  UNL1        0.0279
      5 C          -3.8810    3.7460    2.7280 C.ar    1  UNL1       -0.0430
      6 C          -2.5680    3.3040    2.8550 C.ar    1  UNL1       -0.0493
      7 C          -2.2880    1.9320    2.9540 C.ar    1  UNL1        0.0238
      8 C          -0.9020    1.4730    3.0640 C.ar    1  UNL1        0.1041
      9 N          -0.4340    1.4030    4.3330 N.ar    1  UNL1       -0.1485
     10 N           0.8350    0.9940    4.5620 N.ar    1  UNL1       -0.1550
     11 C           1.6130    0.6640    3.5080 C.ar    1  UNL1        0.0760
     12 C           1.2070    0.7110    2.1920 C.ar    1  UNL1        0.0949
     13 N           2.0570    0.3600    1.2000 N.ar    1  UNL1       -0.2303
     14 C           1.6390    0.3960   -0.0830 C.ar    1  UNL1        0.1237
     15 N           2.5900    0.0240   -1.0270 N.pl3   1  UNL1       -0.2972
     16 C           2.5310   -0.5530   -2.3080 C.ar    1  UNL1        0.0682
     17 C           1.3660   -1.0740   -2.8820 C.ar    1  UNL1       -0.0350
     18 C           1.3770   -1.5850   -4.1850 C.ar    1  UNL1       -0.0245
     19 C           2.5540   -1.5710   -4.9260 C.ar    1  UNL1        0.1262
     20 F           2.5550   -2.0620   -6.1710 F       1  UNL1       -0.2054
     21 C           3.7250   -1.0620   -4.3900 C.ar    1  UNL1        0.0106
     22 C           3.7010   -0.5590   -3.0940 C.ar    1  UNL1        0.1472
     23 F           4.8400   -0.0690   -2.5770 F       1  UNL1       -0.2035
     24 C           0.3630    0.8240   -0.4100 C.ar    1  UNL1       -0.0209
     25 C          -0.5150    1.1900    0.6080 C.ar    1  UNL1       -0.0472
     26 C          -0.1030    1.1340    1.9540 C.ar    1  UNL1        0.0298
     27 H          -4.1610   -0.9470    3.0800 H       1  UNL1        0.0293
     28 H          -2.6830   -0.6760    4.0100 H       1  UNL1        0.0293
     29 H          -2.6150   -0.8280    2.2300 H       1  UNL1        0.0293
     30 H          -5.9280    3.0880    2.6020 H       1  UNL1        0.0829
     31 H          -4.1120    4.8030    2.6560 H       1  UNL1        0.0633
     32 H          -1.7600    4.0320    2.8850 H       1  UNL1        0.0625
     33 H           2.6180    0.3460    3.7640 H       1  UNL1        0.0870
     34 H           3.4860   -0.1230   -0.5680 H       1  UNL1        0.1536
     35 H           0.4400   -1.1330   -2.3190 H       1  UNL1        0.0638
     36 H           0.4740   -1.9990   -4.6240 H       1  UNL1        0.0647
     37 H           4.6410   -1.0540   -4.9680 H       1  UNL1        0.0675
     38 H           0.0490    0.9200   -1.4420 H       1  UNL1        0.0652
     39 H          -1.5140    1.5290    0.3390 H       1  UNL1        0.0626
@<TRIPOS>BOND
     1     1     2    1
     2     1    27    1
     3     1    28    1
     4     1    29    1
     5     2     3   ar
     6     2     7   ar
     7     3     4   ar
     8     4     5   ar
     9     4    30    1
    10     5     6   ar
    11     5    31    1
    12     6     7   ar
    13     6    32    1
    14     7     8    1
    15     8     9   ar
    16     8    26   ar
    17     9    10   ar
    18    10    11   ar
    19    11    12   ar
    20    11    33    1
    21    12    13   ar
    22    12    26   ar
    23    13    14   ar
    24    14    15    1
    25    14    24   ar
    26    15    16    1
    27    15    34    1
    28    16    17   ar
    29    16    22   ar
    30    17    18   ar
    31    17    35    1
    32    18    19   ar
    33    18    36    1
    34    19    20    1
    35    19    21   ar
    36    21    22   ar
    37    21    37    1
    38    22    23    1
    39    24    25   ar
    40    24    38    1
    41    25    26   ar
    42    25    39    1
@<TRIPOS>MOLECULE
AD3CC00130858-I00-C00
 37 40 0 0 0
SMALL
GASTEIGER

@<TRIPOS>ATOM
      1 C          -0.4390   -3.2010    5.2130 C.3     1  UNL1        0.0302
      2 N          -0.6470   -2.6000    3.9180 N.ar    1  UNL1       -0.2738
      3 C          -0.4320   -3.1760    2.7010 C.ar    1  UNL1        0.0344
      4 C          -0.7770   -2.2280    1.7580 C.ar    1  UNL1        0.0402
      5 C          -0.7250   -2.4390    0.3250 C.ar    1  UNL1        0.1054
      6 N          -1.2670   -3.6120   -0.0850 N.ar    1  UNL1       -0.1485
      7 N          -1.3150   -3.9080   -1.4020 N.ar    1  UNL1       -0.1550
      8 C          -0.8150   -3.0170   -2.2850 C.ar    1  UNL1        0.0760
      9 C          -0.2380   -1.8130   -1.9410 C.ar    1  UNL1        0.0949
     10 N           0.2430   -0.9970   -2.9060 N.ar    1  UNL1       -0.2303
     11 C           0.8140    0.1770   -2.5680 C.ar    1  UNL1        0.1237
     12 N           1.2830    0.9380   -3.6340 N.pl3   1  UNL1       -0.2972
     13 C           1.4770    2.3130   -3.8530 C.ar    1  UNL1        0.0682
     14 C           1.0290    3.3170   -2.9870 C.ar    1  UNL1       -0.0350
     15 C           1.3090    4.6640   -3.2480 C.ar    1  UNL1       -0.0245
     16 C           2.0440    5.0140   -4.3740 C.ar    1  UNL1        0.1262
     17 F           2.3060    6.3040   -4.6150 F       1  UNL1       -0.2054
     18 C           2.5040    4.0470   -5.2520 C.ar    1  UNL1        0.0106
     19 C           2.2190    2.7130   -4.9830 C.ar    1  UNL1        0.1472
     20 F           2.6650    1.7780   -5.8380 F       1  UNL1       -0.2035
     21 C           0.9580    0.5460   -1.2430 C.ar    1  UNL1       -0.0209
     22 C           0.4640   -0.2910   -0.2440 C.ar    1  UNL1       -0.0472
     23 C          -0.1760   -1.5050   -0.5780 C.ar    1  UNL1        0.0298
     24 C          -1.2180   -1.1270    2.5240 C.ar    1  UNL1        0.0586
     25 N          -1.1080   -1.3370    3.8380 N.ar    1  UNL1       -0.1792
     26 H           0.2940   -2.6000    5.7580 H       1  UNL1        0.0473
     27 H          -0.0650   -4.2200    5.0850 H       1  UNL1        0.0473
     28 H          -1.3940   -3.2180    5.7430 H       1  UNL1        0.0473
     29 H          -0.0700   -4.1910    2.6010 H       1  UNL1        0.0833
     30 H          -0.8900   -3.3140   -3.3260 H       1  UNL1        0.0870
     31 H           1.1860    0.4090   -4.4980 H       1  UNL1        0.1536
     32 H           0.4230    3.0810   -2.1180 H       1  UNL1        0.0638
     33 H           0.9500    5.4410   -2.5800 H       1  UNL1        0.0647
     34 H           3.0750    4.3220   -6.1300 H       1  UNL1        0.0675
     35 H           1.4890    1.4490   -0.9640 H       1  UNL1        0.0652
     36 H           0.6100    0.0040    0.7920 H       1  UNL1        0.0626
     37 H          -1.6160   -0.1800    2.1820 H       1  UNL1        0.0854
@<TRIPOS>BOND
     1     1     2    1
     2     1    26    1
     3     1    27    1
     4     1    28    1
     5     2     3   ar
     6     2    25   ar
     7     3     4   ar
     8     3    29    1
     9     4     5    1
    10     4    24   ar
    11     5     6   ar
    12     5    23   ar
    13     6     7   ar
    14     7     8   ar
    15     8     9   ar
    16     8    30    1
    17     9    10   ar
    18     9    23   ar
    19    10    11   ar
    20    11    12    1
    21    11    21   ar
    22    12    13    1
    23    12    31    1
    24    13    14   ar
    25    13    19   ar
    26    14    15   ar
    27    14    32    1
    28    15    16   ar
    29    15    33    1
    30    16    17    1
    31    16    18   ar
    32    18    19   ar
    33    18    34    1
    34    19    20    1
    35    21    22   ar
    36    21    35    1
    37    22    23   ar
    38    22    36    1
    39    24    25   ar
    40    24    37    1
@<TRIPOS>MOLECULE
AD3CC00130859-I00-C00
 34 37 0 0 0
SMALL
GASTEIGER

@<TRIPOS>ATOM
      1 F           0.0240   -1.5310    6.5320 F       1  UNL1       -0.2054
      2 C          -0.2840   -1.1480    5.2870 C.ar    1  UNL1        0.1262
      3 C           0.7230   -0.7010    4.4390 C.ar    1  UNL1       -0.0245
      4 C           0.4110   -0.2990    3.1350 C.ar    1  UNL1       -0.0350
      5 C          -0.9090   -0.3340    2.6730 C.ar    1  UNL1        0.0682
      6 N          -1.2950    0.0040    1.3640 N.pl3   1  UNL1       -0.2972
      7 C          -0.6060    0.2770    0.1870 C.ar    1  UNL1        0.1237
      8 C           0.6150   -0.2900   -0.1340 C.ar    1  UNL1       -0.0209
      9 C           1.2180    0.0310   -1.3480 C.ar    1  UNL1       -0.0472
     10 C           0.5840    0.9120   -2.2520 C.ar    1  UNL1        0.0298
     11 C           1.0790    1.3220   -3.5070 C.ar    1  UNL1        0.1054
     12 C           2.3190    0.8430   -4.0820 C.ar    1  UNL1        0.0399
     13 C           3.3850    1.5680   -4.6560 C.ar    1  UNL1        0.0584
     14 N           4.3510    0.7730   -5.1250 N.ar    1  UNL1       -0.1817
     15 N           3.8730   -0.4640   -4.9160 N.ar    1  UNL1       -0.2841
     16 C           2.6570   -0.4780   -4.2950 C.ar    1  UNL1        0.0316
     17 N           0.4280    2.2170   -4.2880 N.ar    1  UNL1       -0.1485
     18 N          -0.7590    2.7220   -3.8850 N.ar    1  UNL1       -0.1550
     19 C          -1.2650    2.3220   -2.6990 C.ar    1  UNL1        0.0760
     20 C          -0.6470    1.4340   -1.8440 C.ar    1  UNL1        0.0949
     21 N          -1.2320    1.1120   -0.6680 N.ar    1  UNL1       -0.2303
     22 C          -1.8980   -0.7940    3.5650 C.ar    1  UNL1        0.1472
     23 F          -3.1770   -0.8410    3.1580 F       1  UNL1       -0.2035
     24 C          -1.6010   -1.1970    4.8620 C.ar    1  UNL1        0.0106
     25 H           1.7470   -0.6610    4.8000 H       1  UNL1        0.0647
     26 H           1.2160    0.0790    2.5120 H       1  UNL1        0.0638
     27 H          -2.2200    0.4250    1.3210 H       1  UNL1        0.1536
     28 H           1.0930   -1.0070    0.5240 H       1  UNL1        0.0652
     29 H           2.1830   -0.4120   -1.5780 H       1  UNL1        0.0626
     30 H           3.4970    2.6420   -4.7430 H       1  UNL1        0.0854
     31 H           4.4290   -1.2520   -5.2320 H       1  UNL1        0.1882
     32 H           2.1460   -1.4080   -4.0880 H       1  UNL1        0.0830
     33 H          -2.2220    2.7620   -2.4380 H       1  UNL1        0.0870
     34 H          -2.3840   -1.5440    5.5250 H       1  UNL1        0.0675
@<TRIPOS>BOND
     1     1     2    1
     2     2     3   ar
     3     2    24   ar
     4     3     4   ar
     5     3    25    1
     6     4     5   ar
     7     4    26    1
     8     5     6    1
     9     5    22   ar
    10     6     7    1
    11     6    27    1
    12     7     8   ar
    13     7    21   ar
    14     8     9   ar
    15     8    28    1
    16     9    10   ar
    17     9    29    1
    18    10    11   ar
    19    10    20   ar
    20    11    12    1
    21    11    17   ar
    22    12    13   ar
    23    12    16   ar
    24    13    14   ar
    25    13    30    1
    26    14    15   ar
    27    15    16   ar
    28    15    31    1
    29    16    32    1
    30    17    18   ar
    31    18    19   ar
    32    19    20   ar
    33    19    33    1
    34    20    21   ar
    35    22    23    1
    36    22    24   ar
    37    24    34    1
@<TRIPOS>MOLECULE
AD3CC00131608-I00-C00
 35 38 0 0 0
SMALL
GASTEIGER

@<TRIPOS>ATOM
      1 F           2.3710   -1.4630    4.7280 F       1  UNL1       -0.2054
      2 C           2.0130   -0.5170    3.8510 C.ar    1  UNL1        0.1262
      3 C           2.9560    0.4160    3.4290 C.ar    1  UNL1       -0.0252
      4 C           2.5890    1.4060    2.5140 C.ar    1  UNL1       -0.0425
      5 C           1.2790    1.4550    2.0200 C.ar    1  UNL1        0.0481
      6 S           0.8200    2.7300    0.8560 S.3     1  UNL1       -0.0851
      7 C           1.1300    1.8710   -0.6150 C.ar    1  UNL1        0.0295
      8 C           2.3190    2.1990   -1.3970 C.ar    1  UNL1       -0.0431
      9 C           2.5920    1.5740   -2.5590 C.ar    1  UNL1       -0.0159
     10 C           1.7070    0.5730   -3.0420 C.ar    1  UNL1        0.1614
     11 N           1.7040   -0.1500   -4.1370 N.ar    1  UNL1       -0.1291
     12 N           0.5930   -0.9580   -4.0990 N.ar    1  UNL1       -0.1284
     13 C          -0.0540   -0.7450   -2.9650 C.ar    1  UNL1        0.1713
     14 C          -1.2710   -1.4420   -2.5580 C.ar    1  UNL1        0.0549
     15 C          -2.2990   -1.6340   -3.4940 C.ar    1  UNL1       -0.0456
     16 C          -3.4680   -2.3120   -3.1360 C.ar    1  UNL1       -0.0256
     17 C          -3.6040   -2.8090   -1.8440 C.ar    1  UNL1        0.1262
     18 F          -4.7240   -3.4590   -1.5030 F       1  UNL1       -0.2054
     19 C          -2.5950   -2.6500   -0.9060 C.ar    1  UNL1        0.0095
     20 C          -1.4340   -1.9750   -1.2720 C.ar    1  UNL1        0.1368
     21 F          -0.4580   -1.8550   -0.3590 F       1  UNL1       -0.2047
     22 N           0.5950    0.2640   -2.2700 N.ar    1  UNL1       -0.2813
     23 C           0.2920    0.9260   -1.0800 C.ar    1  UNL1        0.0269
     24 C           0.3490    0.5070    2.4690 C.ar    1  UNL1        0.1398
     25 F          -0.9160    0.5290    2.0190 F       1  UNL1       -0.2042
     26 C           0.7080   -0.4810    3.3790 C.ar    1  UNL1        0.0099
     27 H           3.9690    0.3670    3.8170 H       1  UNL1        0.0646
     28 H           3.3300    2.1340    2.1920 H       1  UNL1        0.0630
     29 H           2.9870    2.9710   -1.0280 H       1  UNL1        0.0630
     30 H           3.4700    1.8200   -3.1460 H       1  UNL1        0.0655
     31 H          -2.1900   -1.2580   -4.5110 H       1  UNL1        0.0626
     32 H          -4.2660   -2.4590   -3.8570 H       1  UNL1        0.0646
     33 H          -2.7050   -3.0530    0.0940 H       1  UNL1        0.0675
     34 H          -0.6200    0.6450   -0.5690 H       1  UNL1        0.0825
     35 H          -0.0190   -1.2110    3.7150 H       1  UNL1        0.0675
@<TRIPOS>BOND
     1     1     2    1
     2     2     3   ar
     3     2    26   ar
     4     3     4   ar
     5     3    27    1
     6     4     5   ar
     7     4    28    1
     8     5     6    1
     9     5    24   ar
    10     6     7    1
    11     7     8   ar
    12     7    23   ar
    13     8     9   ar
    14     8    29    1
    15     9    10   ar
    16     9    30    1
    17    10    11   ar
    18    10    22   ar
    19    11    12   ar
    20    12    13   ar
    21    13    14    1
    22    13    22   ar
    23    14    15   ar
    24    14    20   ar
    25    15    16   ar
    26    15    31    1
    27    16    17   ar
    28    16    32    1
    29    17    18    1
    30    17    19   ar
    31    19    20   ar
    32    19    33    1
    33    20    21    1
    34    22    23   ar
    35    23    34    1
    36    24    25    1
    37    24    26   ar
    38    26    35    1
@<TRIPOS>MOLECULE
AD3CC00131609-I00-C00
 44 47 0 0 0
SMALL
GASTEIGER

@<TRIPOS>ATOM
      1 C           2.9370   -3.5910    0.2940 C.3     1  UNL1        0.0820
      2 O           1.9420   -2.8240   -0.3870 O.3     1  UNL1       -0.4645
      3 C           0.8140   -3.5190   -0.6770 C.2     1  UNL1        0.3389
      4 O           0.5970   -4.6840   -0.3840 O.2     1  UNL1       -0.2450
      5 C          -0.1620   -2.6590   -1.4010 C.ar    1  UNL1        0.0597
      6 C          -1.3880   -3.2160   -1.7730 C.ar    1  UNL1       -0.0475
      7 C          -2.3340   -2.4470   -2.4530 C.ar    1  UNL1       -0.0574
      8 C          -2.0800   -1.1000   -2.7600 C.ar    1  UNL1       -0.0397
      9 C          -3.1230   -0.3120   -3.5090 C.3     1  UNL1       -0.0390
     10 C          -0.8470   -0.5290   -2.3830 C.ar    1  UNL1        0.0233
     11 C          -0.5290    0.8690   -2.6780 C.ar    1  UNL1        0.1688
     12 N          -0.4960    1.4240   -3.8770 N.ar    1  UNL1       -0.1285
     13 N          -0.1180    2.7410   -3.7440 N.ar    1  UNL1       -0.1291
     14 C           0.0590    2.9780   -2.4650 C.ar    1  UNL1        0.1614
     15 C           0.4510    4.1370   -1.7440 C.ar    1  UNL1       -0.0159
     16 C           0.5320    4.0880   -0.3990 C.ar    1  UNL1       -0.0431
     17 C           0.2230    2.8690    0.3460 C.ar    1  UNL1        0.0295
     18 S           0.3320    2.8920    2.0750 S.3     1  UNL1       -0.0851
     19 C           1.4220    1.5000    2.3400 C.ar    1  UNL1        0.0481
     20 C           0.9450    0.3880    3.0470 C.ar    1  UNL1       -0.0425
     21 C           1.7730   -0.7180    3.2550 C.ar    1  UNL1       -0.0252
     22 C           3.0750   -0.7060    2.7650 C.ar    1  UNL1        0.1262
     23 F           3.8610   -1.7730    2.9610 F       1  UNL1       -0.2054
     24 C           3.5710    0.3890    2.0730 C.ar    1  UNL1        0.0099
     25 C           2.7420    1.4880    1.8680 C.ar    1  UNL1        0.1398
     26 F           3.2350    2.5390    1.1960 F       1  UNL1       -0.2042
     27 C          -0.1620    1.7780   -0.3430 C.ar    1  UNL1        0.0269
     28 N          -0.2170    1.8320   -1.7360 N.ar    1  UNL1       -0.2814
     29 C           0.1070   -1.3210   -1.7170 C.ar    1  UNL1       -0.0368
     30 H           2.5780   -3.8820    1.2860 H       1  UNL1        0.0661
     31 H           3.8240   -2.9630    0.4140 H       1  UNL1        0.0661
     32 H           3.2160   -4.4720   -0.2930 H       1  UNL1        0.0661
     33 H          -1.6120   -4.2570   -1.5430 H       1  UNL1        0.0626
     34 H          -3.2760   -2.9090   -2.7440 H       1  UNL1        0.0621
     35 H          -4.0700   -0.8590   -3.5660 H       1  UNL1        0.0278
     36 H          -3.3300    0.6360   -3.0030 H       1  UNL1        0.0278
     37 H          -2.7870   -0.1180   -4.5330 H       1  UNL1        0.0278
     38 H           0.6810    5.0420   -2.2960 H       1  UNL1        0.0655
     39 H           0.8370    4.9710    0.1570 H       1  UNL1        0.0630
     40 H          -0.0700    0.3730    3.4380 H       1  UNL1        0.0630
     41 H           1.4110   -1.5870    3.7970 H       1  UNL1        0.0646
     42 H           4.5870    0.3910    1.6980 H       1  UNL1        0.0675
     43 H          -0.4340    0.8420    0.1270 H       1  UNL1        0.0825
     44 H           1.0710   -0.8880   -1.4570 H       1  UNL1        0.0633
@<TRIPOS>BOND
     1     1     2    1
     2     1    30    1
     3     1    31    1
     4     1    32    1
     5     2     3    1
     6     3     4    2
     7     3     5    1
     8     5     6   ar
     9     5    29   ar
    10     6     7   ar
    11     6    33    1
    12     7     8   ar
    13     7    34    1
    14     8     9    1
    15     8    10   ar
    16     9    35    1
    17     9    36    1
    18     9    37    1
    19    10    11    1
    20    10    29   ar
    21    11    12   ar
    22    11    28   ar
    23    12    13   ar
    24    13    14   ar
    25    14    15   ar
    26    14    28   ar
    27    15    16   ar
    28    15    38    1
    29    16    17   ar
    30    16    39    1
    31    17    18    1
    32    17    27   ar
    33    18    19    1
    34    19    20   ar
    35    19    25   ar
    36    20    21   ar
    37    20    40    1
    38    21    22   ar
    39    21    41    1
    40    22    23    1
    41    22    24   ar
    42    24    25   ar
    43    24    42    1
    44    25    26    1
    45    27    28   ar
    46    27    43    1
    47    29    44    1
@<TRIPOS>MOLECULE
AD3CC00131725-I00-C00
 41 43 0 0 0
SMALL
GASTEIGER

@<TRIPOS>ATOM
      1 C          -0.9690    0.2130   -1.7870 C.2     1  UNL1       -0.1026
      2 C          -1.8250    0.7640   -0.9170 C.2     1  UNL1       -0.0902
      3 C          -1.4120    1.4130    0.3780 C.3     1  UNL1       -0.0229
      4 C          -2.0160    0.7830    1.6680 C.3     1  UNL1        0.0287
      5 C          -1.4160    1.4740    2.9100 C.3     1  UNL1       -0.0526
      6 C          -3.5400    1.0710    1.6990 C.3     1  UNL1       -0.0526
      7 C          -1.7910   -0.7190    1.7440 C.ar    1  UNL1        0.1437
      8 N          -2.7590   -1.6160    1.8490 N.ar    1  UNL1       -0.1331
      9 N          -2.2100   -2.8700    1.8700 N.ar    1  UNL1       -0.1294
     10 C          -0.9090   -2.7350    1.7850 C.ar    1  UNL1        0.1611
     11 C           0.1440   -3.6880    1.7680 C.ar    1  UNL1       -0.0159
     12 C           1.4210   -3.2680    1.6910 C.ar    1  UNL1       -0.0431
     13 C           1.7500   -1.8480    1.6220 C.ar    1  UNL1        0.0295
     14 S           3.4090   -1.3580    1.5580 S.3     1  UNL1       -0.0851
     15 C           3.6400   -1.3960   -0.2110 C.ar    1  UNL1        0.0481
     16 C           4.3280   -2.4680   -0.7940 C.ar    1  UNL1       -0.0425
     17 C           4.5270   -2.5050   -2.1770 C.ar    1  UNL1       -0.0252
     18 C           4.0450   -1.4680   -2.9700 C.ar    1  UNL1        0.1262
     19 F           4.2380   -1.5090   -4.2940 F       1  UNL1       -0.2054
     20 C           3.3690   -0.3930   -2.4120 C.ar    1  UNL1        0.0099
     21 C           3.1750   -0.3620   -1.0350 C.ar    1  UNL1        0.1398
     22 F           2.5200    0.6850   -0.5090 F       1  UNL1       -0.2042
     23 C           0.7490   -0.9490    1.6460 C.ar    1  UNL1        0.0266
     24 N          -0.5740   -1.3870    1.7160 N.ar    1  UNL1       -0.2849
     25 H          -1.3300   -0.2410   -2.7060 H       1  UNL1        0.0532
     26 H           0.1010    0.1990   -1.6100 H       1  UNL1        0.0532
     27 H          -2.8870    0.7530   -1.1560 H       1  UNL1        0.0567
     28 H          -0.3180    1.4340    0.4410 H       1  UNL1        0.0317
     29 H          -1.7100    2.4690    0.3240 H       1  UNL1        0.0317
     30 H          -1.8140    1.0420    3.8360 H       1  UNL1        0.0239
     31 H          -0.3270    1.3830    2.9540 H       1  UNL1        0.0239
     32 H          -1.6490    2.5450    2.9150 H       1  UNL1        0.0239
     33 H          -3.9920    0.7210    2.6350 H       1  UNL1        0.0239
     34 H          -3.7420    2.1460    1.6200 H       1  UNL1        0.0239
     35 H          -4.0710    0.5720    0.8800 H       1  UNL1        0.0239
     36 H          -0.1080   -4.7410    1.8230 H       1  UNL1        0.0655
     37 H           2.2300   -3.9930    1.6870 H       1  UNL1        0.0630
     38 H           4.7140   -3.2780   -0.1800 H       1  UNL1        0.0630
     39 H           5.0560   -3.3330   -2.6390 H       1  UNL1        0.0646
     40 H           3.0020    0.4110   -3.0390 H       1  UNL1        0.0675
     41 H           0.9310    0.1150    1.6110 H       1  UNL1        0.0825
@<TRIPOS>BOND
     1     1     2    2
     2     1    25    1
     3     1    26    1
     4     2     3    1
     5     2    27    1
     6     4     3    1
     7     3    28    1
     8     3    29    1
     9     4     5    1
    10     4     6    1
    11     4     7    1
    12     5    30    1
    13     5    31    1
    14     5    32    1
    15     6    33    1
    16     6    34    1
    17     6    35    1
    18     7     8   ar
    19     7    24   ar
    20     8     9   ar
    21     9    10   ar
    22    10    11   ar
    23    10    24   ar
    24    11    12   ar
    25    11    36    1
    26    12    13   ar
    27    12    37    1
    28    13    14    1
    29    13    23   ar
    30    14    15    1
    31    15    16   ar
    32    15    21   ar
    33    16    17   ar
    34    16    38    1
    35    17    18   ar
    36    17    39    1
    37    18    19    1
    38    18    20   ar
    39    20    21   ar
    40    20    40    1
    41    21    22    1
    42    23    24   ar
    43    23    41    1
@<TRIPOS>MOLECULE
AD3CC00132303-I00-C01
 70 74 0 0 0
SMALL
GASTEIGER

@<TRIPOS>ATOM
      1 C           0.8940   -2.3380    3.2640 C.3     1  UNL1       -0.0480
      2 C           0.9210   -2.5870    1.7440 C.3     1  UNL1        0.0240
      3 C          -0.3050   -1.8930    1.0940 C.3     1  UNL1        0.0307
      4 N          -0.1550   -0.4370    1.0350 N.am    1  UNL1       -0.2920
      5 C          -1.2620    0.3550    1.3020 C.2     1  UNL1        0.2484
      6 O          -2.3630   -0.0940    1.6200 O.2     1  UNL1       -0.2699
      7 C          -1.0900    1.8320    1.1940 C.ar    1  UNL1        0.0559
      8 C          -1.4750    2.3520    0.0080 C.ar    1  UNL1       -0.0384
      9 C          -1.3020    3.8740   -0.1940 C.ar    1  UNL1        0.0116
     10 C          -1.5510    4.7400   -1.2810 C.ar    1  UNL1        0.0521
     11 C          -2.0840    4.4890   -2.6170 C.2     1  UNL1        0.2494
     12 O          -2.2500    5.3880   -3.4390 O.2     1  UNL1       -0.2817
     13 C          -2.4800    3.0770   -3.0360 C.2     1  UNL1        0.2866
     14 O          -1.5870    2.2950   -3.3460 O.2     1  UNL1       -0.2664
     15 N          -3.8420    2.7600   -3.0160 N.am    1  UNL1       -0.3010
     16 C          -4.2540    1.4740   -3.5470 C.3     1  UNL1        0.0032
     17 C          -4.8850    3.7560   -2.8300 C.3     1  UNL1        0.0032
     18 C          -1.1720    6.0030   -0.8240 C.ar    1  UNL1        0.0164
     19 N          -0.7150    5.9040    0.4680 N.ar    1  UNL1       -0.3489
     20 C          -0.2290    7.0000    1.2730 C.3     1  UNL1        0.0119
     21 C          -0.7950    4.6020    0.8490 C.ar    1  UNL1        0.0509
     22 C          -0.4210    3.8860    2.1710 C.ar    1  UNL1       -0.0185
     23 C          -0.5980    2.5480    2.2340 C.ar    1  UNL1        0.0550
     24 CL         -0.1460    1.7770    3.7340 Cl      1  UNL1       -0.0827
     25 C           1.1220    0.0320    0.4620 C.3     1  UNL1        0.0363
     26 C           1.1200   -0.1020   -1.0680 C.3     1  UNL1       -0.0452
     27 C           2.3270   -0.7190    1.0910 C.3     1  UNL1        0.0182
     28 N           2.1870   -2.1930    1.0610 N.3     1  UNL1       -0.2895
     29 C           3.3980   -2.8900    1.5530 C.3     1  UNL1        0.0366
     30 C           4.6280   -2.6770    0.6190 C.3     1  UNL1       -0.0292
     31 C           4.5000   -3.7010   -0.5140 C.3     1  UNL1       -0.0256
     32 C           3.9280   -4.8510    0.2490 C.ar    1  UNL1       -0.0426
     33 C           3.9490   -6.1920   -0.0970 C.ar    1  UNL1       -0.0583
     34 C           3.3730   -7.1090    0.7820 C.ar    1  UNL1       -0.0615
     35 C           2.7960   -6.6770    1.9860 C.ar    1  UNL1       -0.0614
     36 C           2.7740   -5.3200    2.3220 C.ar    1  UNL1       -0.0568
     37 C           3.3250   -4.4040    1.4350 C.ar    1  UNL1       -0.0271
     38 H          -0.0260   -2.7480    3.6950 H       1  UNL1        0.0245
     39 H           1.7280   -2.8210    3.7780 H       1  UNL1        0.0245
     40 H           0.9220   -1.2730    3.5120 H       1  UNL1        0.0245
     41 H           0.7560   -3.6570    1.5820 H       1  UNL1        0.0475
     42 H          -0.4340   -2.2480    0.0640 H       1  UNL1        0.0480
     43 H          -1.2180   -2.1700    1.6350 H       1  UNL1        0.0480
     44 H          -1.8740    1.7140   -0.7730 H       1  UNL1        0.0632
     45 H          -4.5750    1.6090   -4.5850 H       1  UNL1        0.0428
     46 H          -5.0860    1.0890   -2.9510 H       1  UNL1        0.0428
     47 H          -3.4350    0.7490   -3.5240 H       1  UNL1        0.0428
     48 H          -5.2180    4.1040   -3.8130 H       1  UNL1        0.0428
     49 H          -4.5360    4.6110   -2.2460 H       1  UNL1        0.0428
     50 H          -5.7260    3.2980   -2.2990 H       1  UNL1        0.0428
     51 H          -1.1990    6.9590   -1.3370 H       1  UNL1        0.0816
     52 H          -0.2550    7.9240    0.6870 H       1  UNL1        0.0456
     53 H           0.7990    6.7790    1.5740 H       1  UNL1        0.0456
     54 H          -0.8770    7.0940    2.1480 H       1  UNL1        0.0456
     55 H          -0.0270    4.4470    3.0110 H       1  UNL1        0.0653
     56 H           1.2570    1.0940    0.6870 H       1  UNL1        0.0510
     57 H           2.0470    0.3050   -1.4890 H       1  UNL1        0.0248
     58 H           0.2810    0.4430   -1.5100 H       1  UNL1        0.0248
     59 H           1.0380   -1.1450   -1.3890 H       1  UNL1        0.0248
     60 H           2.4630   -0.3740    2.1230 H       1  UNL1        0.0445
     61 H           3.2150   -0.3920    0.5460 H       1  UNL1        0.0445
     62 H           3.6610   -2.5860    2.5740 H       1  UNL1        0.0512
     63 H           4.7590   -1.6650    0.2300 H       1  UNL1        0.0287
     64 H           5.5430   -2.8910    1.1950 H       1  UNL1        0.0287
     65 H           3.8020   -3.3710   -1.2880 H       1  UNL1        0.0314
     66 H           5.4760   -3.9330   -0.9520 H       1  UNL1        0.0314
     67 H           4.4050   -6.5260   -1.0230 H       1  UNL1        0.0620
     68 H           3.3740   -8.1680    0.5350 H       1  UNL1        0.0618
     69 H           2.3490   -7.4070    2.6580 H       1  UNL1        0.0618
     70 H           2.3220   -5.0030    3.2550 H       1  UNL1        0.0621
@<TRIPOS>BOND
     1     1     2    1
     2     1    38    1
     3     1    39    1
     4     1    40    1
     5     2     3    1
     6     2    28    1
     7     2    41    1
     8     3     4    1
     9     3    42    1
    10     3    43    1
    11     4     5   am
    12     4    25    1
    13     5     6    2
    14     5     7    1
    15     7     8   ar
    16     7    23   ar
    17     8     9   ar
    18     8    44    1
    19     9    10   ar
    20     9    21   ar
    21    10    11    1
    22    10    18   ar
    23    11    12    2
    24    11    13    1
    25    13    14    2
    26    13    15   am
    27    15    16    1
    28    15    17    1
    29    16    45    1
    30    16    46    1
    31    16    47    1
    32    17    48    1
    33    17    49    1
    34    17    50    1
    35    18    19   ar
    36    18    51    1
    37    19    20    1
    38    19    21   ar
    39    20    52    1
    40    20    53    1
    41    20    54    1
    42    21    22   ar
    43    22    23   ar
    44    22    55    1
    45    23    24    1
    46    25    26    1
    47    25    27    1
    48    25    56    1
    49    26    57    1
    50    26    58    1
    51    26    59    1
    52    27    28    1
    53    27    60    1
    54    27    61    1
    55    28    29    1
    56    29    30    1
    57    29    37    1
    58    29    62    1
    59    30    31    1
    60    30    63    1
    61    30    64    1
    62    31    32    1
    63    31    65    1
    64    31    66    1
    65    32    33   ar
    66    32    37   ar
    67    33    34   ar
    68    33    67    1
    69    34    35   ar
    70    34    68    1
    71    35    36   ar
    72    35    69    1
    73    36    37   ar
    74    36    70    1
@<TRIPOS>MOLECULE
AD3CC00133731-I00-C00
 56 60 0 0 0
SMALL
GASTEIGER

@<TRIPOS>ATOM
      1 O          -2.3470   -4.8960   -3.2790 O.3     1  UNL1       -0.3902
      2 C          -1.8760   -4.0550   -4.3300 C.3     1  UNL1        0.0707
      3 C          -2.4410   -4.5310   -5.6740 C.3     1  UNL1       -0.0253
      4 C          -3.2260   -3.3550   -6.2360 C.3     1  UNL1       -0.0492
      5 C          -2.5950   -2.1370   -5.5820 C.3     1  UNL1       -0.0349
      6 C          -2.3700   -2.5940   -4.1330 C.3     1  UNL1        0.0363
      7 N          -1.4390   -1.7150   -3.3790 N.3     1  UNL1       -0.2969
      8 C          -1.1890   -2.2590   -2.0290 C.3     1  UNL1       -0.0001
      9 C          -0.1960   -1.3960   -1.2490 C.3     1  UNL1       -0.0319
     10 C          -0.6870    0.0500   -1.1470 C.3     1  UNL1        0.0038
     11 C           0.2920    0.9360   -0.4290 C.ar    1  UNL1        0.0490
     12 N           1.6050    1.0320   -0.8010 N.ar    1  UNL1       -0.2801
     13 N           2.3390    1.8330   -0.0200 N.ar    1  UNL1       -0.1730
     14 C           1.4600    2.3500    0.8540 C.ar    1  UNL1        0.1019
     15 C           1.8930    3.3410    1.8400 C.ar    1  UNL1        0.0028
     16 C           1.1090    4.4700    2.1220 C.ar    1  UNL1       -0.0511
     17 C           1.5290    5.4040    3.0730 C.ar    1  UNL1       -0.0428
     18 C           2.7380    5.2190    3.7410 C.ar    1  UNL1        0.0410
     19 CL          3.2520    6.3680    4.9130 Cl      1  UNL1       -0.0835
     20 C           3.5350    4.1110    3.4620 C.ar    1  UNL1       -0.0428
     21 C           3.1140    3.1770    2.5110 C.ar    1  UNL1       -0.0511
     22 C           0.1580    1.7930    0.6520 C.ar    1  UNL1        0.0489
     23 C          -1.0760    1.9950    1.3880 C.ar    1  UNL1        0.0780
     24 C          -1.1160    1.8150    2.7550 C.ar    1  UNL1       -0.0174
     25 C          -2.3330    2.0460    3.3510 C.ar    1  UNL1        0.0313
     26 N          -3.4310    2.4240    2.6740 N.ar    1  UNL1       -0.2437
     27 C          -3.2790    2.5650    1.3490 C.ar    1  UNL1        0.1166
     28 N          -2.1480    2.3700    0.6590 N.ar    1  UNL1       -0.2353
     29 C          -1.0040    0.5880   -2.5430 C.3     1  UNL1       -0.0319
     30 C          -1.9680   -0.3410   -3.2820 C.3     1  UNL1       -0.0001
     31 H          -1.9990   -5.7880   -3.4500 H       1  UNL1        0.2098
     32 H          -0.7810   -4.1080   -4.3490 H       1  UNL1        0.0609
     33 H          -3.0650   -5.4260   -5.5910 H       1  UNL1        0.0291
     34 H          -1.6110   -4.7670   -6.3500 H       1  UNL1        0.0291
     35 H          -3.1830   -3.3110   -7.3280 H       1  UNL1        0.0267
     36 H          -4.2790   -3.4350   -5.9420 H       1  UNL1        0.0267
     37 H          -3.2560   -1.2680   -5.6570 H       1  UNL1        0.0281
     38 H          -1.6440   -1.8940   -6.0720 H       1  UNL1        0.0281
     39 H          -3.3380   -2.6180   -3.6110 H       1  UNL1        0.0488
     40 H          -0.7480   -3.2590   -2.0930 H       1  UNL1        0.0427
     41 H          -2.1260   -2.3480   -1.4640 H       1  UNL1        0.0427
     42 H          -0.0550   -1.8170   -0.2450 H       1  UNL1        0.0284
     43 H           0.7830   -1.4420   -1.7450 H       1  UNL1        0.0284
     44 H          -1.6230    0.0300   -0.5740 H       1  UNL1        0.0365
     45 H           2.0680    0.5610   -1.5710 H       1  UNL1        0.1886
     46 H           0.1750    4.6430    1.5920 H       1  UNL1        0.0625
     47 H           0.9130    6.2750    3.2810 H       1  UNL1        0.0632
     48 H           4.4830    3.9690    3.9720 H       1  UNL1        0.0632
     49 H           3.7450    2.3170    2.2890 H       1  UNL1        0.0625
     50 H          -0.2530    1.5090    3.3310 H       1  UNL1        0.0654
     51 H          -2.4640    1.9310    4.4240 H       1  UNL1        0.0831
     52 H          -4.1540    2.8680    0.7830 H       1  UNL1        0.1047
     53 H          -1.4480    1.5890   -2.4710 H       1  UNL1        0.0284
     54 H          -0.0840    0.6980   -3.1330 H       1  UNL1        0.0284
     55 H          -2.9450   -0.3350   -2.7810 H       1  UNL1        0.0427
     56 H          -2.1110    0.0850   -4.2810 H       1  UNL1        0.0427
@<TRIPOS>BOND
     1     1     2    1
     2     1    31    1
     3     2     3    1
     4     2     6    1
     5     2    32    1
     6     3     4    1
     7     3    33    1
     8     3    34    1
     9     4     5    1
    10     4    35    1
    11     4    36    1
    12     5     6    1
    13     5    37    1
    14     5    38    1
    15     6     7    1
    16     6    39    1
    17     7     8    1
    18     7    30    1
    19     8     9    1
    20     8    40    1
    21     8    41    1
    22     9    10    1
    23     9    42    1
    24     9    43    1
    25    10    11    1
    26    10    29    1
    27    10    44    1
    28    11    12   ar
    29    11    22   ar
    30    12    13   ar
    31    12    45    1
    32    13    14   ar
    33    14    15    1
    34    14    22   ar
    35    15    16   ar
    36    15    21   ar
    37    16    17   ar
    38    16    46    1
    39    17    18   ar
    40    17    47    1
    41    18    19    1
    42    18    20   ar
    43    20    21   ar
    44    20    48    1
    45    21    49    1
    46    22    23    1
    47    23    24   ar
    48    23    28   ar
    49    24    25   ar
    50    24    50    1
    51    25    26   ar
    52    25    51    1
    53    26    27   ar
    54    27    28   ar
    55    27    52    1
    56    29    30    1
    57    29    53    1
    58    29    54    1
    59    30    55    1
    60    30    56    1
@<TRIPOS>MOLECULE
AD3CC00133820-I00-C01
 38 41 0 0 0
SMALL
GASTEIGER

@<TRIPOS>ATOM
      1 N           5.2800    1.8020    2.6480 N.1     1  UNL1       -0.1908
      2 C           4.2710    1.3470    2.9950 C.1     1  UNL1        0.1005
      3 C           3.0150    0.7360    3.2870 C.ar    1  UNL1        0.0713
      4 C           2.4310    0.7980    4.5330 C.ar    1  UNL1       -0.0044
      5 S           0.9360   -0.0290    4.5750 S.2     1  UNL1       -0.0799
      6 C           1.0530   -0.4710    2.9390 C.ar    1  UNL1        0.0837
      7 N           0.0720   -1.2100    2.3000 N.am    1  UNL1       -0.2791
      8 C          -1.1280   -1.6520    2.8220 C.2     1  UNL1        0.2219
      9 O          -1.5340   -1.5080    3.9720 O.2     1  UNL1       -0.2751
     10 C          -1.9640   -2.4310    1.8140 C.3     1  UNL1        0.0500
     11 C          -2.2360   -1.6810    0.5220 C.ar    1  UNL1       -0.0308
     12 C          -1.6490   -2.1680   -0.6610 C.ar    1  UNL1       -0.0575
     13 C          -1.8380   -1.5120   -1.8730 C.ar    1  UNL1       -0.0609
     14 C          -2.6180   -0.3610   -1.9230 C.ar    1  UNL1       -0.0526
     15 C          -3.2220    0.1430   -0.7600 C.ar    1  UNL1        0.0005
     16 C          -4.0110    1.2970   -0.7910 C.ar    1  UNL1        0.0353
     17 N          -4.6250    1.8410    0.2830 N.ar    1  UNL1       -0.2626
     18 C          -4.4490    1.2030    1.4540 C.ar    1  UNL1        0.0282
     19 C          -3.6890    0.0510    1.6010 C.ar    1  UNL1       -0.0356
     20 C          -3.0440   -0.5100    0.4800 C.ar    1  UNL1       -0.0114
     21 C           2.2200   -0.0040    2.3590 C.ar    1  UNL1        0.0644
     22 C           2.5500   -0.2950    0.8490 C.ar    1  UNL1        0.1595
     23 N           1.7690   -0.9990    0.0520 N.ar    1  UNL1       -0.2147
     24 C           2.4370   -0.9790   -1.1380 C.ar    1  UNL1        0.1384
     25 N           3.5940   -0.3160   -1.1300 N.ar    1  UNL1       -0.1606
     26 N           3.6490    0.1140    0.1430 N.ar    1  UNL1       -0.2587
     27 H           2.8000    1.2860    5.4270 H       1  UNL1        0.0707
     28 H           0.2570   -1.3820    1.3110 H       1  UNL1        0.1553
     29 H          -2.9210   -2.7050    2.2750 H       1  UNL1        0.0407
     30 H          -1.4440   -3.3760    1.6170 H       1  UNL1        0.0407
     31 H          -1.0330   -3.0660   -0.6450 H       1  UNL1        0.0621
     32 H          -1.3790   -1.8980   -2.7800 H       1  UNL1        0.0618
     33 H          -2.7560    0.1410   -2.8780 H       1  UNL1        0.0624
     34 H          -4.1780    1.8380   -1.7190 H       1  UNL1        0.0836
     35 H          -4.9510    1.6500    2.3080 H       1  UNL1        0.0830
     36 H          -3.6160   -0.3890    2.5910 H       1  UNL1        0.0639
     37 H           2.0720   -1.4620   -2.0360 H       1  UNL1        0.1066
     38 H           4.4450    0.6680    0.4420 H       1  UNL1        0.1906
@<TRIPOS>BOND
     1     1     2    3
     2     2     3    1
     3     3     4   ar
     4     3    21   ar
     5     4     5   ar
     6     4    27    1
     7     5     6   ar
     8     6     7    1
     9     6    21   ar
    10     7     8   am
    11     7    28    1
    12     8     9    2
    13     8    10    1
    14    10    11    1
    15    10    29    1
    16    10    30    1
    17    11    12   ar
    18    11    20   ar
    19    12    13   ar
    20    12    31    1
    21    13    14   ar
    22    13    32    1
    23    14    15   ar
    24    14    33    1
    25    15    16   ar
    26    15    20   ar
    27    16    17   ar
    28    16    34    1
    29    17    18   ar
    30    18    19   ar
    31    18    35    1
    32    19    20   ar
    33    19    36    1
    34    21    22    1
    35    22    23   ar
    36    22    26   ar
    37    23    24   ar
    38    24    25   ar
    39    24    37    1
    40    25    26   ar
    41    26    38    1
@<TRIPOS>MOLECULE
AD3CC00133830-I00-C00
 38 41 0 0 0
SMALL
GASTEIGER

@<TRIPOS>ATOM
      1 O          -3.4740   -0.8000   -0.1830 O.2     1  UNL1       -0.2735
      2 C          -2.5480   -0.1670    0.3220 C.2     1  UNL1        0.2375
      3 C          -2.0000   -0.6060    1.6870 C.3     1  UNL1        0.1032
      4 N          -0.6980   -0.0460    2.0670 N.ar    1  UNL1       -0.2992
      5 C          -0.6940    0.9920    2.9920 C.ar    1  UNL1        0.2522
      6 O          -1.7080    1.5080    3.4550 O.2     1  UNL1       -0.2677
      7 C           0.6230    1.4980    3.4410 C.ar    1  UNL1        0.0036
      8 C           1.7690    1.0180    2.9520 C.ar    1  UNL1       -0.0474
      9 C           1.7470   -0.0320    1.9400 C.ar    1  UNL1        0.0016
     10 C           2.9540   -0.5050    1.4090 C.ar    1  UNL1       -0.0145
     11 C           2.9350   -1.5070    0.4480 C.ar    1  UNL1        0.1591
     12 F           4.0910   -1.9550   -0.0570 F       1  UNL1       -0.2025
     13 C           1.7290   -2.0380    0.0160 C.ar    1  UNL1        0.1604
     14 F           1.7150   -3.0030   -0.9130 F       1  UNL1       -0.2024
     15 C           0.5200   -1.5780    0.5360 C.ar    1  UNL1        0.0006
     16 C           0.5140   -0.5660    1.5080 C.ar    1  UNL1        0.0554
     17 N          -1.9470    0.9650   -0.1890 N.am    1  UNL1       -0.2779
     18 C          -2.2100    1.5990   -1.3920 C.ar    1  UNL1        0.0836
     19 S          -3.4260    1.0560   -2.4480 S.2     1  UNL1       -0.0801
     20 C          -3.1080    2.3010   -3.5710 C.ar    1  UNL1       -0.0078
     21 C          -2.0840    3.1110   -3.1460 C.ar    1  UNL1        0.0374
     22 BR         -1.4810    4.5840   -4.1670 Br      1  UNL1       -0.0490
     23 C          -1.5510    2.7140   -1.8870 C.ar    1  UNL1        0.0610
     24 C          -0.3770    3.3750   -1.0840 C.ar    1  UNL1        0.1593
     25 N           0.0740    2.9410    0.0780 N.ar    1  UNL1       -0.2147
     26 C           1.0740    3.8250    0.3720 C.ar    1  UNL1        0.1384
     27 N           1.2830    4.7740   -0.5410 N.ar    1  UNL1       -0.1606
     28 N           0.3460    4.4720   -1.4540 N.ar    1  UNL1       -0.2587
     29 H          -1.9350   -1.6990    1.7120 H       1  UNL1        0.0589
     30 H          -2.7580   -0.3270    2.4280 H       1  UNL1        0.0589
     31 H           0.5990    2.2810    4.1900 H       1  UNL1        0.0672
     32 H           2.7230    1.4020    3.2980 H       1  UNL1        0.0626
     33 H           3.9120   -0.1070    1.7310 H       1  UNL1        0.0654
     34 H          -0.3850   -2.0310    0.1480 H       1  UNL1        0.0668
     35 H          -1.2050    1.3940    0.3660 H       1  UNL1        0.1554
     36 H          -3.6880    2.3690   -4.4820 H       1  UNL1        0.0705
     37 H           1.6690    3.7750    1.2750 H       1  UNL1        0.1066
     38 H           0.2540    5.0400   -2.2880 H       1  UNL1        0.1906
@<TRIPOS>BOND
     1     1     2    2
     2     2     3    1
     3     2    17   am
     4     3     4    1
     5     3    29    1
     6     3    30    1
     7     4     5   ar
     8     4    16   ar
     9     5     6    2
    10     5     7   ar
    11     7     8   ar
    12     7    31    1
    13     8     9   ar
    14     8    32    1
    15     9    10   ar
    16     9    16   ar
    17    10    11   ar
    18    10    33    1
    19    11    12    1
    20    11    13   ar
    21    13    14    1
    22    13    15   ar
    23    15    16   ar
    24    15    34    1
    25    17    18    1
    26    17    35    1
    27    18    19   ar
    28    18    23   ar
    29    19    20   ar
    30    20    21   ar
    31    20    36    1
    32    21    22    1
    33    21    23   ar
    34    23    24    1
    35    24    25   ar
    36    24    28   ar
    37    25    26   ar
    38    26    27   ar
    39    26    37    1
    40    27    28   ar
    41    28    38    1
@<TRIPOS>MOLECULE
AD3CC00134343-I00-C00
 49 53 0 0 0
SMALL
GASTEIGER

@<TRIPOS>ATOM
      1 C          -2.7640   -2.1170   -4.0040 C.3     1  UNL1       -0.0380
      2 C          -2.7280   -1.7180   -2.5530 C.ar    1  UNL1       -0.0292
      3 C          -3.5630   -2.3840   -1.6390 C.ar    1  UNL1       -0.0564
      4 C          -3.5430   -2.0540   -0.2840 C.ar    1  UNL1       -0.0493
      5 C          -2.6910   -1.0490    0.1720 C.ar    1  UNL1        0.0385
      6 C          -2.6660   -0.7300    1.6230 C.2     1  UNL1        0.2443
      7 O          -3.6860   -0.8420    2.2930 O.2     1  UNL1       -0.2702
      8 N          -1.4340   -0.3560    2.1300 N.am    1  UNL1       -0.3085
      9 C          -1.2360   -0.0510    3.5110 C.3     1  UNL1        0.0235
     10 C          -0.9860    1.3660    3.9450 C.3     1  UNL1       -0.0328
     11 C           0.1230    0.3580    4.0120 C.3     1  UNL1       -0.0328
     12 C          -1.8890   -0.3500   -0.7380 C.ar    1  UNL1       -0.0281
     13 C          -1.8720   -0.6910   -2.1000 C.ar    1  UNL1        0.0361
     14 N          -1.0430   -0.0160   -3.0280 N.pl3   1  UNL1       -0.2972
     15 C           0.0680    0.8030   -2.7630 C.ar    1  UNL1        0.1562
     16 N           0.1650    1.9850   -3.4190 N.ar    1  UNL1       -0.1333
     17 N           1.1820    2.8920   -3.1720 N.ar    1  UNL1       -0.1537
     18 C           2.1610    2.6320   -2.2860 C.ar    1  UNL1        0.0761
     19 C           2.1500    1.4010   -1.6480 C.ar    1  UNL1        0.0979
     20 C           1.1110    0.4950   -1.8700 C.ar    1  UNL1        0.0634
     21 C           1.4180   -0.5940   -1.0350 C.ar    1  UNL1        0.0609
     22 N           2.4820   -0.3760   -0.2690 N.ar    1  UNL1       -0.1733
     23 N           2.9820    0.8150   -0.6970 N.ar    1  UNL1       -0.2249
     24 C           4.2070    1.2790   -0.1600 C.ar    1  UNL1        0.1362
     25 C           4.5660    0.9540    1.1520 C.ar    1  UNL1        0.1515
     26 F           3.7400    0.2750    1.9620 F       1  UNL1       -0.2032
     27 C           5.7750    1.3910    1.6970 C.ar    1  UNL1       -0.0242
     28 C           6.6520    2.1540    0.9300 C.ar    1  UNL1       -0.0562
     29 C           6.3150    2.4700   -0.3840 C.ar    1  UNL1       -0.0242
     30 C           5.1030    2.0290   -0.9210 C.ar    1  UNL1        0.1515
     31 F           4.8790    2.2860   -2.2160 F       1  UNL1       -0.2032
     32 H          -3.4290   -2.9720   -4.1690 H       1  UNL1        0.0278
     33 H          -1.7650   -2.4100   -4.3430 H       1  UNL1        0.0278
     34 H          -3.1300   -1.2870   -4.6160 H       1  UNL1        0.0278
     35 H          -4.2330   -3.1730   -1.9780 H       1  UNL1        0.0621
     36 H          -4.1890   -2.5830    0.4140 H       1  UNL1        0.0625
     37 H          -0.6070   -0.4640    1.5540 H       1  UNL1        0.1493
     38 H          -1.8320   -0.6700    4.1800 H       1  UNL1        0.0498
     39 H          -1.4410    1.6920    4.8740 H       1  UNL1        0.0284
     40 H          -0.9350    2.1350    3.1830 H       1  UNL1        0.0284
     41 H           0.4270    0.0010    4.9900 H       1  UNL1        0.0284
     42 H           0.9370    0.4500    3.3030 H       1  UNL1        0.0284
     43 H          -1.3010    0.4910   -0.3810 H       1  UNL1        0.0644
     44 H          -1.6040    0.4530   -3.7380 H       1  UNL1        0.1536
     45 H           2.8920    3.4130   -2.1300 H       1  UNL1        0.0870
     46 H           0.8810   -1.5280   -0.9280 H       1  UNL1        0.0855
     47 H           6.0180    1.1350    2.7250 H       1  UNL1        0.0647
     48 H           7.5960    2.4920    1.3510 H       1  UNL1        0.0619
     49 H           6.9990    3.0420   -1.0050 H       1  UNL1        0.0647
@<TRIPOS>BOND
     1     1     2    1
     2     1    32    1
     3     1    33    1
     4     1    34    1
     5     2     3   ar
     6     2    13   ar
     7     3     4   ar
     8     3    35    1
     9     4     5   ar
    10     4    36    1
    11     5     6    1
    12     5    12   ar
    13     6     7    2
    14     6     8   am
    15     8     9    1
    16     8    37    1
    17     9    10    1
    18     9    11    1
    19     9    38    1
    20    10    11    1
    21    10    39    1
    22    10    40    1
    23    11    41    1
    24    11    42    1
    25    12    13   ar
    26    12    43    1
    27    13    14    1
    28    14    15    1
    29    14    44    1
    30    15    16   ar
    31    15    20   ar
    32    16    17   ar
    33    17    18   ar
    34    18    19   ar
    35    18    45    1
    36    19    20   ar
    37    19    23   ar
    38    20    21   ar
    39    21    22   ar
    40    21    46    1
    41    22    23   ar
    42    23    24    1
    43    24    25   ar
    44    24    30   ar
    45    25    26    1
    46    25    27   ar
    47    27    28   ar
    48    27    47    1
    49    28    29   ar
    50    28    48    1
    51    29    30   ar
    52    29    49    1
    53    30    31    1
@<TRIPOS>MOLECULE
AD3CC00134360-I00-C00
 52 56 0 0 0
SMALL
GASTEIGER

@<TRIPOS>ATOM
      1 C          -3.7940   -2.5660   -1.4070 C.3     1  UNL1       -0.0352
      2 C          -2.4630   -2.9390   -0.8140 C.ar    1  UNL1        0.0059
      3 C          -2.1250   -4.2980   -0.7130 C.ar    1  UNL1        0.1288
      4 F          -2.9910   -5.2330   -1.1310 F       1  UNL1       -0.2051
      5 C          -0.9050   -4.7150   -0.1990 C.ar    1  UNL1       -0.0140
      6 C           0.0140   -3.7610    0.2290 C.ar    1  UNL1        0.0412
      7 C           1.3210   -4.2270    0.7670 C.2     1  UNL1        0.2444
      8 O           1.4070   -5.3440    1.2660 O.2     1  UNL1       -0.2702
      9 N           2.3850   -3.3550    0.6320 N.am    1  UNL1       -0.3085
     10 C           3.6980   -3.6860    1.0850 C.3     1  UNL1        0.0235
     11 C           4.1930   -3.1800    2.4110 C.3     1  UNL1       -0.0328
     12 C           4.7750   -2.6380    1.1390 C.3     1  UNL1       -0.0328
     13 C          -0.3190   -2.4010    0.1670 C.ar    1  UNL1       -0.0280
     14 C          -1.5500   -1.9650   -0.3520 C.ar    1  UNL1        0.0388
     15 N          -1.8560   -0.5930   -0.4740 N.pl3   1  UNL1       -0.2971
     16 C          -1.0270    0.5410   -0.4730 C.ar    1  UNL1        0.1562
     17 N           0.3240    0.4500   -0.4930 N.ar    1  UNL1       -0.1330
     18 N           1.1580    1.5600   -0.4250 N.ar    1  UNL1       -0.1506
     19 C           0.6860    2.8300   -0.4090 C.ar    1  UNL1        0.0866
     20 C           1.7030    3.9050   -0.2030 C.3     1  UNL1       -0.0185
     21 C          -0.7040    2.9680   -0.5220 C.ar    1  UNL1        0.1007
     22 C          -1.5470    1.8510   -0.4700 C.ar    1  UNL1        0.0637
     23 C          -2.8410    2.3960   -0.3520 C.ar    1  UNL1        0.0609
     24 N          -2.8430    3.7250   -0.3390 N.ar    1  UNL1       -0.1734
     25 N          -1.5580    4.0630   -0.6350 N.ar    1  UNL1       -0.2274
     26 C          -1.3030    5.3990   -1.0410 C.ar    1  UNL1        0.1013
     27 C          -2.1180    6.4340   -0.5520 C.ar    1  UNL1       -0.0307
     28 C          -1.8910    7.7520   -0.9550 C.ar    1  UNL1       -0.0243
     29 C          -0.8730    8.0270   -1.8620 C.ar    1  UNL1        0.1263
     30 F          -0.6600    9.2910   -2.2500 F       1  UNL1       -0.2054
     31 C          -0.0870    7.0100   -2.3860 C.ar    1  UNL1        0.0109
     32 C          -0.3150    5.6980   -1.9810 C.ar    1  UNL1        0.1514
     33 F           0.3850    4.7290   -2.5840 F       1  UNL1       -0.2032
     34 H          -3.6570   -1.8720   -2.2430 H       1  UNL1        0.0279
     35 H          -4.3290   -3.4370   -1.7980 H       1  UNL1        0.0279
     36 H          -4.4280   -2.1010   -0.6460 H       1  UNL1        0.0279
     37 H          -0.6810   -5.7760   -0.1430 H       1  UNL1        0.0654
     38 H           2.2760   -2.5110    0.0810 H       1  UNL1        0.1493
     39 H           4.0080   -4.6890    0.7980 H       1  UNL1        0.0498
     40 H           3.5400   -2.5390    2.9910 H       1  UNL1        0.0284
     41 H           4.7980   -3.8530    3.0080 H       1  UNL1        0.0284
     42 H           4.5280   -1.6190    0.8660 H       1  UNL1        0.0284
     43 H           5.7830   -2.9360    0.8750 H       1  UNL1        0.0284
     44 H           0.3750   -1.6730    0.5770 H       1  UNL1        0.0644
     45 H          -2.8370   -0.3840   -0.5890 H       1  UNL1        0.1536
     46 H           2.4760    3.5570    0.4910 H       1  UNL1        0.0294
     47 H           1.2600    4.8020    0.2350 H       1  UNL1        0.0294
     48 H           2.1920    4.1570   -1.1480 H       1  UNL1        0.0294
     49 H          -3.7830    1.8770   -0.2330 H       1  UNL1        0.0855
     50 H          -2.9220    6.2290    0.1540 H       1  UNL1        0.0640
     51 H          -2.5050    8.5620   -0.5730 H       1  UNL1        0.0647
     52 H           0.6780    7.2340   -3.1200 H       1  UNL1        0.0676
@<TRIPOS>BOND
     1     1     2    1
     2     1    34    1
     3     1    35    1
     4     1    36    1
     5     2     3   ar
     6     2    14   ar
     7     3     4    1
     8     3     5   ar
     9     5     6   ar
    10     5    37    1
    11     6     7    1
    12     6    13   ar
    13     7     8    2
    14     7     9   am
    15     9    10    1
    16     9    38    1
    17    10    11    1
    18    10    12    1
    19    10    39    1
    20    11    12    1
    21    11    40    1
    22    11    41    1
    23    12    42    1
    24    12    43    1
    25    13    14   ar
    26    13    44    1
    27    14    15    1
    28    15    16    1
    29    15    45    1
    30    16    17   ar
    31    16    22   ar
    32    17    18   ar
    33    18    19   ar
    34    19    20    1
    35    19    21   ar
    36    20    46    1
    37    20    47    1
    38    20    48    1
    39    21    22   ar
    40    21    25   ar
    41    22    23   ar
    42    23    24   ar
    43    23    49    1
    44    24    25   ar
    45    25    26    1
    46    26    27   ar
    47    26    32   ar
    48    27    28   ar
    49    27    50    1
    50    28    29   ar
    51    28    51    1
    52    29    30    1
    53    29    31   ar
    54    31    32   ar
    55    31    52    1
    56    32    33    1
@<TRIPOS>MOLECULE
AD3CC00134516-I00-C00
 46 50 0 0 0
SMALL
GASTEIGER

@<TRIPOS>ATOM
      1 O           1.9550   -0.6910    5.7310 O.2     1  UNL1       -0.2702
      2 C           1.8600   -0.7630    4.5100 C.2     1  UNL1        0.2443
      3 N           1.9000   -1.9500    3.8010 N.am    1  UNL1       -0.3085
      4 C           2.0390   -3.2150    4.4510 C.3     1  UNL1        0.0235
      5 C           0.8310   -4.0690    4.7180 C.3     1  UNL1       -0.0328
      6 C           1.8350   -4.4940    3.6870 C.3     1  UNL1       -0.0328
      7 C           1.7300    0.4860    3.7070 C.ar    1  UNL1        0.0385
      8 C           2.2220    1.6770    4.2500 C.ar    1  UNL1       -0.0481
      9 C           2.1170    2.8680    3.5330 C.ar    1  UNL1       -0.0409
     10 C           1.5190    2.8650    2.2710 C.ar    1  UNL1        0.0621
     11 CL          1.4190    4.3670    1.4130 Cl      1  UNL1       -0.0816
     12 C           1.0040    1.6800    1.7000 C.ar    1  UNL1        0.0517
     13 N           0.4260    1.7210    0.4120 N.pl3   1  UNL1       -0.2963
     14 C           0.0860    0.7110   -0.4970 C.ar    1  UNL1        0.1562
     15 N           0.3300   -0.6020   -0.2530 N.ar    1  UNL1       -0.1333
     16 N           0.0510   -1.6080   -1.1650 N.ar    1  UNL1       -0.1537
     17 C          -0.5170   -1.3420   -2.3530 C.ar    1  UNL1        0.0761
     18 C          -0.8400   -0.0250   -2.6370 C.ar    1  UNL1        0.0977
     19 C          -0.5030    0.9990   -1.7470 C.ar    1  UNL1        0.0634
     20 C          -0.8590    2.1770   -2.4290 C.ar    1  UNL1        0.0609
     21 N          -1.3600    1.9490   -3.6380 N.ar    1  UNL1       -0.1735
     22 N          -1.4450    0.5930   -3.7280 N.ar    1  UNL1       -0.2305
     23 C          -2.1120    0.0200   -4.8550 C.ar    1  UNL1        0.0662
     24 C          -2.6050   -1.2920   -4.8430 C.ar    1  UNL1       -0.0335
     25 C          -3.2540   -1.8090   -5.9700 C.ar    1  UNL1       -0.0244
     26 C          -3.4210   -1.0150   -7.0990 C.ar    1  UNL1        0.1235
     27 F          -4.0450   -1.5170   -8.1720 F       1  UNL1       -0.2055
     28 C          -2.9630    0.2940   -7.1210 C.ar    1  UNL1       -0.0244
     29 C          -2.3160    0.8160   -5.9990 C.ar    1  UNL1       -0.0335
     30 C           1.1090    0.4980    2.4470 C.ar    1  UNL1       -0.0270
     31 H           1.9590   -1.9320    2.7900 H       1  UNL1        0.1493
     32 H           2.8190   -3.2200    5.2110 H       1  UNL1        0.0498
     33 H          -0.1330   -3.7110    4.3780 H       1  UNL1        0.0284
     34 H           0.7990   -4.6080    5.6570 H       1  UNL1        0.0284
     35 H           1.5400   -4.4410    2.6460 H       1  UNL1        0.0284
     36 H           2.4810   -5.3310    3.9240 H       1  UNL1        0.0284
     37 H           2.6880    1.6780    5.2350 H       1  UNL1        0.0625
     38 H           2.5040    3.7890    3.9620 H       1  UNL1        0.0633
     39 H           0.3340    2.6640    0.0510 H       1  UNL1        0.1537
     40 H          -0.6590   -2.1830   -3.0150 H       1  UNL1        0.0870
     41 H          -0.7490    3.2040   -2.1020 H       1  UNL1        0.0855
     42 H          -2.5630   -1.9250   -3.9640 H       1  UNL1        0.0640
     43 H          -3.6470   -2.8210   -5.9690 H       1  UNL1        0.0647
     44 H          -3.1130    0.9030   -8.0080 H       1  UNL1        0.0647
     45 H          -1.9630    1.8460   -6.0360 H       1  UNL1        0.0640
     46 H           0.6670   -0.4170    2.0700 H       1  UNL1        0.0644
@<TRIPOS>BOND
     1     1     2    2
     2     2     3   am
     3     2     7    1
     4     3     4    1
     5     3    31    1
     6     4     5    1
     7     4     6    1
     8     4    32    1
     9     5     6    1
    10     5    33    1
    11     5    34    1
    12     6    35    1
    13     6    36    1
    14     7     8   ar
    15     7    30   ar
    16     8     9   ar
    17     8    37    1
    18     9    10   ar
    19     9    38    1
    20    10    11    1
    21    10    12   ar
    22    12    13    1
    23    12    30   ar
    24    13    14    1
    25    13    39    1
    26    14    15   ar
    27    14    19   ar
    28    15    16   ar
    29    16    17   ar
    30    17    18   ar
    31    17    40    1
    32    18    19   ar
    33    18    22   ar
    34    19    20   ar
    35    20    21   ar
    36    20    41    1
    37    21    22   ar
    38    22    23    1
    39    23    24   ar
    40    23    29   ar
    41    24    25   ar
    42    24    42    1
    43    25    26   ar
    44    25    43    1
    45    26    27    1
    46    26    28   ar
    47    28    29   ar
    48    28    44    1
    49    29    45    1
    50    30    46    1
@<TRIPOS>MOLECULE
AD3CC00135375-I00-C03
 51 53 0 0 0
SMALL
GASTEIGER

@<TRIPOS>ATOM
      1 C          -1.4150   -1.0130   -0.2000 C.3     1  UNL1       -0.0488
      2 C          -0.4410   -1.8860    0.5800 C.3     1  UNL1        0.0186
      3 N           0.9490   -1.7390    0.1020 N.am    1  UNL1       -0.2522
      4 C           1.4300   -2.4490   -1.0070 C.2     1  UNL1        0.2519
      5 O           2.4230   -2.1740   -1.6760 O.2     1  UNL1       -0.2696
      6 C           0.6830   -3.6440   -1.4530 C.ar    1  UNL1        0.0375
      7 C           0.6720   -4.7980   -0.6640 C.ar    1  UNL1       -0.0496
      8 C          -0.0230   -5.9220   -1.1050 C.ar    1  UNL1       -0.0608
      9 C          -0.6830   -5.8980   -2.3370 C.ar    1  UNL1       -0.0588
     10 C          -0.6400   -4.7570   -3.1510 C.ar    1  UNL1       -0.0497
     11 C          -1.3610   -4.7350   -4.4660 C.3     1  UNL1       -0.0397
     12 C           0.0470   -3.6240   -2.6990 C.ar    1  UNL1       -0.0467
     13 C           1.7070   -0.6770    0.7120 C.ar    1  UNL1        0.1328
     14 C           3.0590   -0.5150    0.4970 C.ar    1  UNL1       -0.0030
     15 C           3.6710    0.5160    1.1670 C.ar    1  UNL1        0.0344
     16 N           3.0290    1.3430    2.0040 N.ar    1  UNL1       -0.2228
     17 C           1.7230    1.1280    2.1640 C.ar    1  UNL1        0.2173
     18 N           1.0820    1.9850    3.0470 N.pl3   1  UNL1       -0.3069
     19 C          -0.2350    2.4440    2.6270 C.3     1  UNL1        0.0457
     20 C          -1.0450    2.7840    3.8850 C.3     1  UNL1       -0.0424
     21 C          -0.1010    3.6280    1.6780 C.ar    1  UNL1       -0.0275
     22 C           0.2270    4.9180    2.1280 C.ar    1  UNL1       -0.0568
     23 C           0.3620    5.9760    1.2260 C.ar    1  UNL1       -0.0614
     24 C           0.1820    5.7600   -0.1380 C.ar    1  UNL1       -0.0617
     25 C          -0.1270    4.4840   -0.6030 C.ar    1  UNL1       -0.0614
     26 C          -0.2630    3.4260    0.2970 C.ar    1  UNL1       -0.0568
     27 N           1.0460    0.1430    1.5580 N.ar    1  UNL1       -0.1991
     28 H          -2.4340   -1.1610    0.1700 H       1  UNL1        0.0245
     29 H          -1.4020   -1.2570   -1.2670 H       1  UNL1        0.0245
     30 H          -1.1700    0.0480   -0.1010 H       1  UNL1        0.0245
     31 H          -0.7640   -2.9260    0.4870 H       1  UNL1        0.0466
     32 H          -0.4990   -1.6710    1.6530 H       1  UNL1        0.0466
     33 H           1.1980   -4.8210    0.2870 H       1  UNL1        0.0625
     34 H          -0.0470   -6.8220   -0.4950 H       1  UNL1        0.0618
     35 H          -1.2230   -6.7840   -2.6660 H       1  UNL1        0.0620
     36 H          -0.8730   -4.0520   -5.1690 H       1  UNL1        0.0278
     37 H          -1.3630   -5.7280   -4.9270 H       1  UNL1        0.0278
     38 H          -2.3960   -4.4100   -4.3190 H       1  UNL1        0.0278
     39 H           0.0950   -2.7260   -3.3120 H       1  UNL1        0.0628
     40 H           3.6540   -1.1570   -0.1350 H       1  UNL1        0.0667
     41 H           4.7340    0.7040    1.0490 H       1  UNL1        0.0832
     42 H           1.7460    2.7360    3.2050 H       1  UNL1        0.1495
     43 H          -0.8030    1.6490    2.1270 H       1  UNL1        0.0545
     44 H          -2.0250    3.1970    3.6220 H       1  UNL1        0.0251
     45 H          -1.2090    1.8820    4.4860 H       1  UNL1        0.0251
     46 H          -0.5320    3.5060    4.5300 H       1  UNL1        0.0251
     47 H           0.3900    5.1130    3.1850 H       1  UNL1        0.0621
     48 H           0.6150    6.9690    1.5890 H       1  UNL1        0.0618
     49 H           0.2920    6.5830   -0.8390 H       1  UNL1        0.0618
     50 H          -0.2530    4.3090   -1.6680 H       1  UNL1        0.0618
     51 H          -0.4870    2.4330   -0.0880 H       1  UNL1        0.0621
@<TRIPOS>BOND
     1     1     2    1
     2     1    28    1
     3     1    29    1
     4     1    30    1
     5     2     3    1
     6     2    31    1
     7     2    32    1
     8     3     4   am
     9     3    13    1
    10     4     5    2
    11     4     6    1
    12     6     7   ar
    13     6    12   ar
    14     7     8   ar
    15     7    33    1
    16     8     9   ar
    17     8    34    1
    18     9    10   ar
    19     9    35    1
    20    10    11    1
    21    10    12   ar
    22    11    36    1
    23    11    37    1
    24    11    38    1
    25    12    39    1
    26    13    14   ar
    27    13    27   ar
    28    14    15   ar
    29    14    40    1
    30    15    16   ar
    31    15    41    1
    32    16    17   ar
    33    17    18    1
    34    17    27   ar
    35    18    19    1
    36    18    42    1
    37    19    20    1
    38    19    21    1
    39    19    43    1
    40    20    44    1
    41    20    45    1
    42    20    46    1
    43    21    22   ar
    44    21    26   ar
    45    22    23   ar
    46    22    47    1
    47    23    24   ar
    48    23    48    1
    49    24    25   ar
    50    24    49    1
    51    25    26   ar
    52    25    50    1
    53    26    51    1
@<TRIPOS>MOLECULE
AD3CC00135418-I00-C02
 45 47 0 0 0
SMALL
GASTEIGER

@<TRIPOS>ATOM
      1 C          -3.2850    5.7960    2.0120 C.3     1  UNL1        0.0004
      2 N          -2.9620    4.4120    1.7730 N.am    1  UNL1       -0.3144
      3 C          -3.9350    3.5260    1.3550 C.2     1  UNL1        0.2439
      4 O          -5.0870    3.8560    1.0970 O.2     1  UNL1       -0.2702
      5 C          -3.5280    2.0960    1.2660 C.ar    1  UNL1        0.0387
      6 C          -4.5050    1.1150    1.4090 C.ar    1  UNL1       -0.0493
      7 C          -4.1480   -0.2290    1.3380 C.ar    1  UNL1       -0.0561
      8 C          -2.8090   -0.6210    1.1280 C.ar    1  UNL1       -0.0249
      9 C          -2.5320   -2.1030    1.1440 C.3     1  UNL1       -0.0377
     10 C          -1.8090    0.3680    0.9420 C.ar    1  UNL1        0.0729
     11 N          -0.4280    0.0540    0.6590 N.ar    1  UNL1       -0.1954
     12 N          -0.2430   -1.1200   -0.0320 N.ar    1  UNL1       -0.1680
     13 C           0.9540   -1.4250   -0.3980 C.ar    1  UNL1        0.0913
     14 C           2.1580   -0.6140   -0.1790 C.ar    1  UNL1        0.1599
     15 O           3.3790   -1.0690   -0.6320 O.3     1  UNL1       -0.4844
     16 C           3.4910   -0.9470   -2.0570 C.3     1  UNL1        0.1174
     17 C           4.8920   -1.3040   -2.4830 C.ar    1  UNL1        0.0250
     18 C           6.0140   -0.8940   -1.7450 C.ar    1  UNL1       -0.0499
     19 C           7.3000   -1.2110   -2.1860 C.ar    1  UNL1       -0.0259
     20 C           7.4680   -1.9260   -3.3670 C.ar    1  UNL1        0.1261
     21 F           8.7040   -2.2250   -3.7860 F       1  UNL1       -0.2054
     22 C           6.3750   -2.3270   -4.1210 C.ar    1  UNL1        0.0092
     23 C           5.0980   -2.0080   -3.6750 C.ar    1  UNL1        0.1325
     24 F           4.0450   -2.3850   -4.4140 F       1  UNL1       -0.2050
     25 C           1.9980    0.4950    0.5510 C.ar    1  UNL1        0.1270
     26 BR          3.4430    1.6120    0.9840 Br      1  UNL1       -0.0408
     27 C           0.6350    0.9010    1.0280 C.ar    1  UNL1        0.2895
     28 O           0.5200    1.9180    1.7160 O.2     1  UNL1       -0.2645
     29 C          -2.2030    1.7200    1.0100 C.ar    1  UNL1       -0.0238
     30 H          -3.9290    6.1790    1.2160 H       1  UNL1        0.0426
     31 H          -2.3550    6.3690    2.0470 H       1  UNL1        0.0426
     32 H          -3.8040    5.8740    2.9710 H       1  UNL1        0.0426
     33 H          -2.1180    4.0470    2.1980 H       1  UNL1        0.1487
     34 H          -5.5430    1.3920    1.5820 H       1  UNL1        0.0625
     35 H          -4.9260   -0.9800    1.4650 H       1  UNL1        0.0621
     36 H          -3.3570   -2.6560    1.6080 H       1  UNL1        0.0278
     37 H          -2.4170   -2.4840    0.1240 H       1  UNL1        0.0278
     38 H          -1.6440   -2.3300    1.7420 H       1  UNL1        0.0278
     39 H           1.1110   -2.3780   -0.9290 H       1  UNL1        0.0885
     40 H           2.7690   -1.6220   -2.5310 H       1  UNL1        0.0749
     41 H           3.2820    0.0830   -2.3710 H       1  UNL1        0.0749
     42 H           5.8930   -0.3290   -0.8220 H       1  UNL1        0.0623
     43 H           8.1730   -0.9030   -1.6160 H       1  UNL1        0.0646
     44 H           6.5160   -2.8770   -5.0440 H       1  UNL1        0.0675
     45 H          -1.4840    2.5060    0.7990 H       1  UNL1        0.0646
@<TRIPOS>BOND
     1     1     2    1
     2     1    30    1
     3     1    31    1
     4     1    32    1
     5     2     3   am
     6     2    33    1
     7     3     4    2
     8     3     5    1
     9     5     6   ar
    10     5    29   ar
    11     6     7   ar
    12     6    34    1
    13     7     8   ar
    14     7    35    1
    15     8     9    1
    16     8    10   ar
    17     9    36    1
    18     9    37    1
    19     9    38    1
    20    10    11    1
    21    10    29   ar
    22    11    12   ar
    23    11    27   ar
    24    12    13   ar
    25    13    14   ar
    26    13    39    1
    27    14    15    1
    28    14    25   ar
    29    15    16    1
    30    16    17    1
    31    16    40    1
    32    16    41    1
    33    17    18   ar
    34    17    23   ar
    35    18    19   ar
    36    18    42    1
    37    19    20   ar
    38    19    43    1
    39    20    21    1
    40    20    22   ar
    41    22    23   ar
    42    22    44    1
    43    23    24    1
    44    25    26    1
    45    25    27   ar
    46    27    28    2
    47    29    45    1
@<TRIPOS>MOLECULE
AD3CC00137001-I00-C00
 53 56 0 0 0
SMALL
GASTEIGER

@<TRIPOS>ATOM
      1 C           1.7790   -4.3740   -3.7060 C.3     1  UNL1       -0.0380
      2 C           1.4230   -3.0530   -3.0760 C.ar    1  UNL1       -0.0291
      3 C           1.3260   -1.9220   -3.9040 C.ar    1  UNL1       -0.0553
      4 C           1.0160   -0.6650   -3.3790 C.ar    1  UNL1       -0.0401
      5 C           0.7910   -0.5190   -2.0170 C.ar    1  UNL1        0.0365
      6 N           0.4990    0.7080   -1.3850 N.am    1  UNL1       -0.2692
      7 C           0.2550    1.9350   -1.9820 C.2     1  UNL1        0.3081
      8 O           0.1580    2.1280   -3.1860 O.2     1  UNL1       -0.2522
      9 N           0.1400    2.9210   -1.0100 N.am    1  UNL1       -0.2692
     10 C          -0.2030    4.2750   -1.1960 C.ar    1  UNL1        0.0354
     11 C          -0.0740    5.1230   -0.0920 C.ar    1  UNL1       -0.0390
     12 C          -0.3990    6.4770   -0.1950 C.ar    1  UNL1       -0.0411
     13 C          -0.8640    6.9990   -1.4040 C.ar    1  UNL1        0.0527
     14 CL         -1.2440    8.6830   -1.4480 Cl      1  UNL1       -0.0830
     15 C          -1.0120    6.1710   -2.5210 C.ar    1  UNL1        0.0748
     16 C          -1.5190    6.7060   -3.8320 C.3     1  UNL1        0.4188
     17 F          -0.7230    7.6810   -4.3520 F       1  UNL1       -0.1658
     18 F          -2.7680    7.2420   -3.7390 F       1  UNL1       -0.1658
     19 F          -1.6100    5.7580   -4.8090 F       1  UNL1       -0.1658
     20 C          -0.6780    4.8050   -2.3990 C.ar    1  UNL1       -0.0274
     21 C           0.8810   -1.6510   -1.1920 C.ar    1  UNL1       -0.0189
     22 C           1.1920   -2.9280   -1.6890 C.ar    1  UNL1        0.0383
     23 N           1.3300   -4.0450   -0.8480 N.pl3   1  UNL1       -0.2833
     24 C           1.3260   -4.2190    0.5340 C.ar    1  UNL1        0.2200
     25 N           1.4130   -5.4880    0.9560 N.ar    1  UNL1       -0.2226
     26 C           1.4260   -5.6930    2.2840 C.ar    1  UNL1        0.0332
     27 C           1.3510   -4.6820    3.2120 C.ar    1  UNL1       -0.0174
     28 C           1.2620   -3.4040    2.7050 C.ar    1  UNL1        0.0775
     29 C           1.1580   -2.1950    3.5410 C.ar    1  UNL1        0.0186
     30 C           0.5890   -2.1870    4.8230 C.ar    1  UNL1       -0.0497
     31 C           0.5010   -1.0000    5.5530 C.ar    1  UNL1       -0.0430
     32 C           0.9800    0.1650    4.9810 C.ar    1  UNL1        0.0276
     33 N           1.5310    0.2180    3.7520 N.ar    1  UNL1       -0.2626
     34 C           1.6090   -0.9560    3.0740 C.ar    1  UNL1        0.0367
     35 N           1.2590   -3.1770    1.3740 N.ar    1  UNL1       -0.2142
     36 H           2.7000   -4.7690   -3.2650 H       1  UNL1        0.0278
     37 H           0.9650   -5.0920   -3.5650 H       1  UNL1        0.0278
     38 H           1.9480   -4.2750   -4.7840 H       1  UNL1        0.0278
     39 H           1.5000   -2.0060   -4.9750 H       1  UNL1        0.0621
     40 H           0.9690    0.1770   -4.0620 H       1  UNL1        0.0636
     41 H           0.3440    0.6590   -0.3890 H       1  UNL1        0.1564
     42 H           0.4800    2.6700   -0.0930 H       1  UNL1        0.1564
     43 H           0.2860    4.7460    0.8630 H       1  UNL1        0.0636
     44 H          -0.2860    7.1200    0.6750 H       1  UNL1        0.0633
     45 H          -0.8070    4.1650   -3.2710 H       1  UNL1        0.0642
     46 H           0.6900   -1.5240   -0.1330 H       1  UNL1        0.0655
     47 H           1.3960   -4.9510   -1.2860 H       1  UNL1        0.1550
     48 H           1.5040   -6.7320    2.5920 H       1  UNL1        0.0831
     49 H           1.3760   -4.8990    4.2700 H       1  UNL1        0.0654
     50 H           0.1870   -3.0950    5.2640 H       1  UNL1        0.0625
     51 H           0.0590   -0.9870    6.5440 H       1  UNL1        0.0633
     52 H           0.9310    1.1110    5.5120 H       1  UNL1        0.0829
     53 H           2.0730   -0.8690    2.0930 H       1  UNL1        0.0836
@<TRIPOS>BOND
     1     1     2    1
     2     1    36    1
     3     1    37    1
     4     1    38    1
     5     2     3   ar
     6     2    22   ar
     7     3     4   ar
     8     3    39    1
     9     4     5   ar
    10     4    40    1
    11     5     6    1
    12     5    21   ar
    13     6     7   am
    14     6    41    1
    15     7     8    2
    16     7     9   am
    17     9    10    1
    18     9    42    1
    19    10    11   ar
    20    10    20   ar
    21    11    12   ar
    22    11    43    1
    23    12    13   ar
    24    12    44    1
    25    13    14    1
    26    13    15   ar
    27    15    16    1
    28    15    20   ar
    29    16    17    1
    30    16    18    1
    31    16    19    1
    32    20    45    1
    33    21    22   ar
    34    21    46    1
    35    22    23    1
    36    23    24    1
    37    23    47    1
    38    24    25   ar
    39    24    35   ar
    40    25    26   ar
    41    26    27   ar
    42    26    48    1
    43    27    28   ar
    44    27    49    1
    45    28    29    1
    46    28    35   ar
    47    29    30   ar
    48    29    34   ar
    49    30    31   ar
    50    30    50    1
    51    31    32   ar
    52    31    51    1
    53    32    33   ar
    54    32    52    1
    55    33    34   ar
    56    34    53    1
@<TRIPOS>MOLECULE
AD3CC00140748-I00-C00
 49 52 0 0 0
SMALL
GASTEIGER

@<TRIPOS>ATOM
      1 C           3.3190    6.0370   -0.5740 C.3     1  UNL1       -0.0107
      2 S           3.5110    4.2460   -0.7260 S.3     1  UNL1       -0.0913
      3 C           1.9440    3.7240   -0.2420 C.ar    1  UNL1        0.1671
      4 N           0.9430    4.4590    0.1680 N.ar    1  UNL1       -0.2214
      5 C          -0.0750    3.5630    0.4210 C.ar    1  UNL1        0.0976
      6 C          -1.3820    4.0100    0.8750 C.ar    1  UNL1        0.0026
      7 C          -2.5670    3.4550    0.3690 C.ar    1  UNL1       -0.0498
      8 C          -3.8080    3.9090    0.8210 C.ar    1  UNL1       -0.0258
      9 C          -3.8640    4.9240    1.7690 C.ar    1  UNL1        0.1234
     10 F          -5.0550    5.3580    2.2010 F       1  UNL1       -0.2055
     11 C          -2.7030    5.4990    2.2700 C.ar    1  UNL1       -0.0258
     12 C          -1.4610    5.0460    1.8190 C.ar    1  UNL1       -0.0498
     13 C           0.3410    2.2530    0.2010 C.ar    1  UNL1        0.0748
     14 C          -0.2750    0.9430    0.3960 C.ar    1  UNL1        0.0051
     15 C          -0.9670    0.6510    1.5690 C.ar    1  UNL1       -0.0343
     16 C          -1.5290   -0.6050    1.7030 C.ar    1  UNL1        0.0303
     17 N          -1.4400   -1.5710    0.7640 N.ar    1  UNL1       -0.2401
     18 C          -0.7550   -1.2840   -0.3620 C.ar    1  UNL1        0.1255
     19 N          -0.7100   -2.3480   -1.2620 N.am    1  UNL1       -0.2701
     20 C          -0.0200   -2.4350   -2.4500 C.2     1  UNL1        0.2226
     21 O           0.7050   -1.5660   -2.9290 O.2     1  UNL1       -0.2751
     22 C          -0.2440   -3.7540   -3.1730 C.3     1  UNL1        0.0495
     23 C           0.3650   -4.9350   -2.4560 C.ar    1  UNL1       -0.0384
     24 C           1.7550   -5.0120   -2.2760 C.ar    1  UNL1       -0.0554
     25 C           2.3210   -6.1000   -1.6100 C.ar    1  UNL1       -0.0262
     26 C           1.5000   -7.1110   -1.1280 C.ar    1  UNL1        0.1234
     27 F           2.0440   -8.1550   -0.4890 F       1  UNL1       -0.2055
     28 C           0.1220   -7.0560   -1.3010 C.ar    1  UNL1       -0.0262
     29 C          -0.4480   -5.9700   -1.9660 C.ar    1  UNL1       -0.0554
     30 C          -0.1690   -0.0470   -0.5860 C.ar    1  UNL1       -0.0123
     31 N           1.6350    2.4000   -0.2540 N.ar    1  UNL1       -0.3324
     32 H           2.5260    6.3970   -1.2360 H       1  UNL1        0.0345
     33 H           3.0870    6.3140    0.4580 H       1  UNL1        0.0345
     34 H           4.2550    6.5240   -0.8600 H       1  UNL1        0.0345
     35 H          -2.5350    2.6770   -0.3910 H       1  UNL1        0.0625
     36 H          -4.7280    3.4840    0.4340 H       1  UNL1        0.0646
     37 H          -2.7680    6.2980    3.0010 H       1  UNL1        0.0646
     38 H          -0.5510    5.5030    2.2020 H       1  UNL1        0.0625
     39 H          -1.0680    1.3770    2.3690 H       1  UNL1        0.0639
     40 H          -2.0810   -0.8770    2.5980 H       1  UNL1        0.0830
     41 H          -1.1930   -3.1650   -0.9110 H       1  UNL1        0.1562
     42 H          -1.3240   -3.8900   -3.3100 H       1  UNL1        0.0407
     43 H           0.1870   -3.6830   -4.1790 H       1  UNL1        0.0407
     44 H           2.4050   -4.2240   -2.6540 H       1  UNL1        0.0621
     45 H           3.3950   -6.1640   -1.4660 H       1  UNL1        0.0646
     46 H          -0.4970   -7.8610   -0.9180 H       1  UNL1        0.0646
     47 H          -1.5270   -5.9420   -2.1010 H       1  UNL1        0.0621
     48 H           0.3500    0.1700   -1.5120 H       1  UNL1        0.0658
     49 H           2.2710    1.6600   -0.5150 H       1  UNL1        0.1679
@<TRIPOS>BOND
     1     1     2    1
     2     1    32    1
     3     1    33    1
     4     1    34    1
     5     2     3    1
     6     3     4   ar
     7     3    31   ar
     8     4     5   ar
     9     5     6    1
    10     5    13   ar
    11     6     7   ar
    12     6    12   ar
    13     7     8   ar
    14     7    35    1
    15     8     9   ar
    16     8    36    1
    17     9    10    1
    18     9    11   ar
    19    11    12   ar
    20    11    37    1
    21    12    38    1
    22    13    14    1
    23    13    31   ar
    24    14    15   ar
    25    14    30   ar
    26    15    16   ar
    27    15    39    1
    28    16    17   ar
    29    16    40    1
    30    17    18   ar
    31    18    19    1
    32    18    30   ar
    33    19    20   am
    34    19    41    1
    35    20    21    2
    36    20    22    1
    37    22    23    1
    38    22    42    1
    39    22    43    1
    40    23    24   ar
    41    23    29   ar
    42    24    25   ar
    43    24    44    1
    44    25    26   ar
    45    25    45    1
    46    26    27    1
    47    26    28   ar
    48    28    29   ar
    49    28    46    1
    50    29    47    1
    51    30    48    1
    52    31    49    1
@<TRIPOS>MOLECULE
AD3CC00140748-I00-C00
 49 52 0 0 0
SMALL
GASTEIGER

@<TRIPOS>ATOM
      1 C           3.3190    6.0370   -0.5740 C.3     1  UNL1       -0.0107
      2 S           3.5110    4.2460   -0.7260 S.3     1  UNL1       -0.0913
      3 C           1.9440    3.7240   -0.2420 C.ar    1  UNL1        0.1671
      4 N           0.9430    4.4590    0.1680 N.ar    1  UNL1       -0.2214
      5 C          -0.0750    3.5630    0.4210 C.ar    1  UNL1        0.0976
      6 C          -1.3820    4.0100    0.8750 C.ar    1  UNL1        0.0026
      7 C          -2.5670    3.4550    0.3690 C.ar    1  UNL1       -0.0498
      8 C          -3.8080    3.9090    0.8210 C.ar    1  UNL1       -0.0258
      9 C          -3.8640    4.9240    1.7690 C.ar    1  UNL1        0.1234
     10 F          -5.0550    5.3580    2.2010 F       1  UNL1       -0.2055
     11 C          -2.7030    5.4990    2.2700 C.ar    1  UNL1       -0.0258
     12 C          -1.4610    5.0460    1.8190 C.ar    1  UNL1       -0.0498
     13 C           0.3410    2.2530    0.2010 C.ar    1  UNL1        0.0748
     14 C          -0.2750    0.9430    0.3960 C.ar    1  UNL1        0.0051
     15 C          -0.9670    0.6510    1.5690 C.ar    1  UNL1       -0.0343
     16 C          -1.5290   -0.6050    1.7030 C.ar    1  UNL1        0.0303
     17 N          -1.4400   -1.5710    0.7640 N.ar    1  UNL1       -0.2401
     18 C          -0.7550   -1.2840   -0.3620 C.ar    1  UNL1        0.1255
     19 N          -0.7100   -2.3480   -1.2620 N.am    1  UNL1       -0.2701
     20 C          -0.0200   -2.4350   -2.4500 C.2     1  UNL1        0.2226
     21 O           0.7050   -1.5660   -2.9290 O.2     1  UNL1       -0.2751
     22 C          -0.2440   -3.7540   -3.1730 C.3     1  UNL1        0.0495
     23 C           0.3650   -4.9350   -2.4560 C.ar    1  UNL1       -0.0384
     24 C           1.7550   -5.0120   -2.2760 C.ar    1  UNL1       -0.0554
     25 C           2.3210   -6.1000   -1.6100 C.ar    1  UNL1       -0.0262
     26 C           1.5000   -7.1110   -1.1280 C.ar    1  UNL1        0.1234
     27 F           2.0440   -8.1550   -0.4890 F       1  UNL1       -0.2055
     28 C           0.1220   -7.0560   -1.3010 C.ar    1  UNL1       -0.0262
     29 C          -0.4480   -5.9700   -1.9660 C.ar    1  UNL1       -0.0554
     30 C          -0.1690   -0.0470   -0.5860 C.ar    1  UNL1       -0.0123
     31 N           1.6350    2.4000   -0.2540 N.ar    1  UNL1       -0.3324
     32 H           2.5260    6.3970   -1.2360 H       1  UNL1        0.0345
     33 H           3.0870    6.3140    0.4580 H       1  UNL1        0.0345
     34 H           4.2550    6.5240   -0.8600 H       1  UNL1        0.0345
     35 H          -2.5350    2.6770   -0.3910 H       1  UNL1        0.0625
     36 H          -4.7280    3.4840    0.4340 H       1  UNL1        0.0646
     37 H          -2.7680    6.2980    3.0010 H       1  UNL1        0.0646
     38 H          -0.5510    5.5030    2.2020 H       1  UNL1        0.0625
     39 H          -1.0680    1.3770    2.3690 H       1  UNL1        0.0639
     40 H          -2.0810   -0.8770    2.5980 H       1  UNL1        0.0830
     41 H          -1.1930   -3.1650   -0.9110 H       1  UNL1        0.1562
     42 H          -1.3240   -3.8900   -3.3100 H       1  UNL1        0.0407
     43 H           0.1870   -3.6830   -4.1790 H       1  UNL1        0.0407
     44 H           2.4050   -4.2240   -2.6540 H       1  UNL1        0.0621
     45 H           3.3950   -6.1640   -1.4660 H       1  UNL1        0.0646
     46 H          -0.4970   -7.8610   -0.9180 H       1  UNL1        0.0646
     47 H          -1.5270   -5.9420   -2.1010 H       1  UNL1        0.0621
     48 H           0.3500    0.1700   -1.5120 H       1  UNL1        0.0658
     49 H           2.2710    1.6600   -0.5150 H       1  UNL1        0.1679
@<TRIPOS>BOND
     1     1     2    1
     2     1    32    1
     3     1    33    1
     4     1    34    1
     5     2     3    1
     6     3     4   ar
     7     3    31   ar
     8     4     5   ar
     9     5     6    1
    10     5    13   ar
    11     6     7   ar
    12     6    12   ar
    13     7     8   ar
    14     7    35    1
    15     8     9   ar
    16     8    36    1
    17     9    10    1
    18     9    11   ar
    19    11    12   ar
    20    11    37    1
    21    12    38    1
    22    13    14    1
    23    13    31   ar
    24    14    15   ar
    25    14    30   ar
    26    15    16   ar
    27    15    39    1
    28    16    17   ar
    29    16    40    1
    30    17    18   ar
    31    18    19    1
    32    18    30   ar
    33    19    20   am
    34    19    41    1
    35    20    21    2
    36    20    22    1
    37    22    23    1
    38    22    42    1
    39    22    43    1
    40    23    24   ar
    41    23    29   ar
    42    24    25   ar
    43    24    44    1
    44    25    26   ar
    45    25    45    1
    46    26    27    1
    47    26    28   ar
    48    28    29   ar
    49    28    46    1
    50    29    47    1
    51    30    48    1
    52    31    49    1
@<TRIPOS>MOLECULE
AD3CC00140750-I00-C00
 50 53 0 0 0
SMALL
GASTEIGER

@<TRIPOS>ATOM
      1 C          -4.7960   -3.9760   -2.1340 C.3     1  UNL1       -0.0107
      2 S          -3.4520   -2.8780   -2.6380 S.3     1  UNL1       -0.0913
      3 C          -2.5310   -2.8290   -1.1840 C.ar    1  UNL1        0.1671
      4 N          -2.7510   -3.4790   -0.0710 N.ar    1  UNL1       -0.2214
      5 C          -1.7370   -3.0860    0.7780 C.ar    1  UNL1        0.0976
      6 C          -1.6580   -3.5780    2.1430 C.ar    1  UNL1        0.0026
      7 C          -1.9460   -4.9270    2.4020 C.ar    1  UNL1       -0.0498
      8 C          -1.8830   -5.4270    3.7040 C.ar    1  UNL1       -0.0258
      9 C          -1.5410   -4.5750    4.7480 C.ar    1  UNL1        0.1234
     10 F          -1.4790   -5.0540    5.9970 F       1  UNL1       -0.2055
     11 C          -1.2680   -3.2320    4.5150 C.ar    1  UNL1       -0.0258
     12 C          -1.3320   -2.7310    3.2130 C.ar    1  UNL1       -0.0498
     13 C          -0.8580   -2.2140    0.1410 C.ar    1  UNL1        0.0748
     14 C           0.4020   -1.5820    0.5210 C.ar    1  UNL1        0.0051
     15 C           1.4000   -2.3140    1.1610 C.ar    1  UNL1       -0.0343
     16 C           2.5750   -1.6670    1.4970 C.ar    1  UNL1        0.0303
     17 N           2.8180   -0.3660    1.2310 N.ar    1  UNL1       -0.2401
     18 C           1.8510    0.3320    0.6000 C.ar    1  UNL1        0.1257
     19 N           2.2040    1.6620    0.3600 N.am    1  UNL1       -0.2668
     20 C           1.4840    2.6190   -0.3060 C.2     1  UNL1        0.2422
     21 O           0.3880    2.4780   -0.8330 O.2     1  UNL1       -0.2705
     22 C           2.2010    3.9240   -0.3480 C.2     1  UNL1        0.0011
     23 C           1.6380    4.9730   -0.9670 C.2     1  UNL1       -0.0469
     24 C           2.3050    6.2840   -1.0470 C.ar    1  UNL1        0.0118
     25 C           2.9390    6.6920   -2.2360 C.ar    1  UNL1        0.0495
     26 CL          2.9750    5.6850   -3.6450 Cl      1  UNL1       -0.0829
     27 C           3.5750    7.9350   -2.3230 C.ar    1  UNL1       -0.0427
     28 C           3.5900    8.7940   -1.2260 C.ar    1  UNL1       -0.0590
     29 C           2.9670    8.4100   -0.0410 C.ar    1  UNL1       -0.0427
     30 C           2.3290    7.1670    0.0500 C.ar    1  UNL1        0.0495
     31 CL          1.5710    6.7780    1.5580 Cl      1  UNL1       -0.0829
     32 C           0.6380   -0.2330    0.2350 C.ar    1  UNL1       -0.0123
     33 N          -1.4200   -2.0480   -1.1090 N.ar    1  UNL1       -0.3324
     34 H          -5.3490   -3.5490   -1.2930 H       1  UNL1        0.0345
     35 H          -4.4070   -4.9590   -1.8540 H       1  UNL1        0.0345
     36 H          -5.4870   -4.1040   -2.9720 H       1  UNL1        0.0345
     37 H          -2.2250   -5.5900    1.5850 H       1  UNL1        0.0625
     38 H          -2.1030   -6.4700    3.9090 H       1  UNL1        0.0646
     39 H          -1.0170   -2.5820    5.3470 H       1  UNL1        0.0646
     40 H          -1.1410   -1.6740    3.0450 H       1  UNL1        0.0625
     41 H           1.2760   -3.3660    1.3940 H       1  UNL1        0.0639
     42 H           3.3790   -2.1970    2.0000 H       1  UNL1        0.0830
     43 H           3.1200    1.8750    0.7280 H       1  UNL1        0.1565
     44 H           3.1690    4.0000    0.1300 H       1  UNL1        0.0670
     45 H           0.6690    4.8980   -1.4560 H       1  UNL1        0.0626
     46 H           4.0620    8.2400   -3.2470 H       1  UNL1        0.0632
     47 H           4.0840    9.7600   -1.2950 H       1  UNL1        0.0618
     48 H           2.9770    9.0850    0.8120 H       1  UNL1        0.0632
     49 H          -0.1340    0.3550   -0.2460 H       1  UNL1        0.0658
     50 H          -1.0610   -1.4800   -1.8620 H       1  UNL1        0.1679
@<TRIPOS>BOND
     1     1     2    1
     2     1    34    1
     3     1    35    1
     4     1    36    1
     5     2     3    1
     6     3     4   ar
     7     3    33   ar
     8     4     5   ar
     9     5     6    1
    10     5    13   ar
    11     6     7   ar
    12     6    12   ar
    13     7     8   ar
    14     7    37    1
    15     8     9   ar
    16     8    38    1
    17     9    10    1
    18     9    11   ar
    19    11    12   ar
    20    11    39    1
    21    12    40    1
    22    13    14    1
    23    13    33   ar
    24    14    15   ar
    25    14    32   ar
    26    15    16   ar
    27    15    41    1
    28    16    17   ar
    29    16    42    1
    30    17    18   ar
    31    18    19    1
    32    18    32   ar
    33    19    20   am
    34    19    43    1
    35    20    21    2
    36    20    22    1
    37    22    23    2
    38    22    44    1
    39    23    24    1
    40    23    45    1
    41    24    25   ar
    42    24    30   ar
    43    25    26    1
    44    25    27   ar
    45    27    28   ar
    46    27    46    1
    47    28    29   ar
    48    28    47    1
    49    29    30   ar
    50    29    48    1
    51    30    31    1
    52    32    49    1
    53    33    50    1
@<TRIPOS>MOLECULE
AD3CC00141018-I00-C00
 63 65 0 0 0
SMALL
GASTEIGER

@<TRIPOS>ATOM
      1 C           1.0990   -6.2630    0.0970 C.3     1  UNL1        0.0833
      2 O          -0.1600   -5.6530    0.3720 O.3     1  UNL1       -0.4537
      3 C          -0.2630   -4.3790   -0.0750 C.2     1  UNL1        0.4003
      4 O           0.5980   -3.7740   -0.6980 O.2     1  UNL1       -0.2265
      5 N          -1.4850   -3.8870    0.2650 N.am    1  UNL1       -0.2771
      6 C          -1.9450   -2.5630   -0.1410 C.3     1  UNL1        0.0389
      7 C          -2.6740   -2.6450   -1.4810 C.3     1  UNL1       -0.0451
      8 C          -2.8510   -1.9180    0.9310 C.3     1  UNL1        0.0301
      9 N          -2.2430   -1.9260    2.2550 N.pl3   1  UNL1       -0.3117
     10 C          -1.1060   -1.1450    2.4050 C.ar    1  UNL1        0.2157
     11 N          -0.1930   -1.6420    3.2490 N.ar    1  UNL1       -0.2229
     12 C           0.9330   -0.9290    3.4210 C.ar    1  UNL1        0.0332
     13 C           1.1740    0.2610    2.7900 C.ar    1  UNL1       -0.0173
     14 C           0.1790    0.6850    1.9370 C.ar    1  UNL1        0.0796
     15 C           0.3140    1.9330    1.2160 C.ar    1  UNL1        0.0459
     16 C           0.5160    3.1490    1.8390 C.ar    1  UNL1        0.0356
     17 N           0.5500    4.0820    0.8460 N.ar    1  UNL1       -0.2677
     18 C           0.7280    5.5250    0.9850 C.3     1  UNL1        0.0471
     19 C          -0.5360    6.1800    1.5350 C.3     1  UNL1       -0.0429
     20 C           1.9540    5.8770    1.8280 C.3     1  UNL1       -0.0429
     21 N           0.3590    3.5610   -0.3780 N.ar    1  UNL1       -0.1702
     22 C           0.2310    2.2360   -0.1750 C.ar    1  UNL1        0.1047
     23 C           0.0350    1.3460   -1.3150 C.ar    1  UNL1        0.0412
     24 C          -0.8230    1.7370   -2.3560 C.ar    1  UNL1       -0.0312
     25 C          -1.0120    0.9100   -3.4640 C.ar    1  UNL1        0.0436
     26 CL         -2.0810    1.3980   -4.7220 Cl      1  UNL1       -0.0835
     27 C          -0.3550   -0.3130   -3.5570 C.ar    1  UNL1       -0.0181
     28 C           0.4880   -0.7130   -2.5230 C.ar    1  UNL1        0.0848
     29 N           1.1630   -1.9730   -2.6460 N.pl3   1  UNL1       -0.2180
     30 S           2.7650   -1.8800   -3.2000 S.O2    1  UNL1        0.0403
     31 C           2.7650   -3.2510   -4.3320 C.3     1  UNL1        0.0736
     32 O           2.9440   -0.6710   -3.9750 O.2     1  UNL1       -0.1555
     33 O           3.6300   -2.2150   -2.0920 O.2     1  UNL1       -0.1555
     34 C           0.6990    0.1200   -1.4180 C.ar    1  UNL1        0.1549
     35 F           1.5530   -0.2800   -0.4630 F       1  UNL1       -0.2028
     36 N          -0.9600   -0.0040    1.7220 N.ar    1  UNL1       -0.2144
     37 H           1.2150   -6.4160   -0.9790 H       1  UNL1        0.0661
     38 H           1.1210   -7.2390    0.5910 H       1  UNL1        0.0661
     39 H           1.9190   -5.6590    0.4920 H       1  UNL1        0.0661
     40 H          -2.1260   -4.5500    0.6790 H       1  UNL1        0.1523
     41 H          -1.0600   -1.9360   -0.2790 H       1  UNL1        0.0512
     42 H          -2.0220   -3.0630   -2.2570 H       1  UNL1        0.0248
     43 H          -3.5560   -3.2910   -1.4110 H       1  UNL1        0.0248
     44 H          -3.0010   -1.6540   -1.8100 H       1  UNL1        0.0248
     45 H          -3.7820   -2.4930    1.0030 H       1  UNL1        0.0480
     46 H          -3.1420   -0.9020    0.6350 H       1  UNL1        0.0480
     47 H          -1.9730   -2.8430    2.5950 H       1  UNL1        0.1490
     48 H           1.6570   -1.3600    4.1060 H       1  UNL1        0.0831
     49 H           2.0920    0.8120    2.9400 H       1  UNL1        0.0654
     50 H           0.6140    3.4180    2.8810 H       1  UNL1        0.0833
     51 H           0.9030    5.9110   -0.0290 H       1  UNL1        0.0539
     52 H          -0.7680    5.8290    2.5460 H       1  UNL1        0.0250
     53 H          -1.4000    5.9520    0.9010 H       1  UNL1        0.0250
     54 H          -0.4250    7.2680    1.5730 H       1  UNL1        0.0250
     55 H           2.8520    5.3870    1.4380 H       1  UNL1        0.0250
     56 H           2.1280    6.9570    1.8190 H       1  UNL1        0.0250
     57 H           1.8290    5.5690    2.8710 H       1  UNL1        0.0250
     58 H          -1.3380    2.6950   -2.3000 H       1  UNL1        0.0640
     59 H          -0.5000   -0.9520   -4.4220 H       1  UNL1        0.0652
     60 H           1.1590   -2.5130   -1.7580 H       1  UNL1        0.1734
     61 H           3.7610   -3.3250   -4.7770 H       1  UNL1        0.0482
     62 H           2.5370   -4.1650   -3.7810 H       1  UNL1        0.0482
     63 H           2.0230   -3.0670   -5.1130 H       1  UNL1        0.0482
@<TRIPOS>BOND
     1     1     2    1
     2     1    37    1
     3     1    38    1
     4     1    39    1
     5     2     3    1
     6     3     4    2
     7     3     5   am
     8     5     6    1
     9     5    40    1
    10     6     7    1
    11     6     8    1
    12     6    41    1
    13     7    42    1
    14     7    43    1
    15     7    44    1
    16     8     9    1
    17     8    45    1
    18     8    46    1
    19     9    10    1
    20     9    47    1
    21    10    11   ar
    22    10    36   ar
    23    11    12   ar
    24    12    13   ar
    25    12    48    1
    26    13    14   ar
    27    13    49    1
    28    14    15    1
    29    14    36   ar
    30    15    16   ar
    31    15    22   ar
    32    16    17   ar
    33    16    50    1
    34    17    18    1
    35    17    21   ar
    36    18    19    1
    37    18    20    1
    38    18    51    1
    39    19    52    1
    40    19    53    1
    41    19    54    1
    42    20    55    1
    43    20    56    1
    44    20    57    1
    45    21    22   ar
    46    22    23    1
    47    23    24   ar
    48    23    34   ar
    49    24    25   ar
    50    24    58    1
    51    25    26    1
    52    25    27   ar
    53    27    28   ar
    54    27    59    1
    55    28    29    1
    56    28    34   ar
    57    30    29    1
    58    29    60    1
    59    30    31    1
    60    30    32    2
    61    30    33    2
    62    31    61    1
    63    31    62    1
    64    31    63    1
    65    34    35    1
@<TRIPOS>MOLECULE
AD3CC00141212-I00-C00
 66 71 0 0 0
SMALL
GASTEIGER

@<TRIPOS>ATOM
      1 O          -0.6860    2.6000   -2.3690 O.2     1  UNL1       -0.2444
      2 C          -1.4230    2.1550   -1.5020 C.ar    1  UNL1        0.3518
      3 N          -2.7720    2.4820   -1.3200 N.ar    1  UNL1       -0.2091
      4 C          -3.6140    3.4280   -2.0540 C.3     1  UNL1        0.0621
      5 C          -3.1870    4.8860   -1.8570 C.3     1  UNL1       -0.0067
      6 C          -2.2280    5.3860   -2.9240 C.3     1  UNL1        0.0496
      7 O          -2.7450    5.1090   -4.2230 O.3     1  UNL1       -0.3796
      8 C          -2.8150    3.7080   -4.4680 C.3     1  UNL1        0.0496
      9 C          -3.8100    3.0490   -3.5260 C.3     1  UNL1       -0.0067
     10 N          -3.2860    1.7940   -0.2470 N.ar    1  UNL1       -0.1479
     11 C          -2.2880    1.0840    0.1980 C.ar    1  UNL1        0.1696
     12 C          -2.4180    0.2890    1.4300 C.ar    1  UNL1        0.0243
     13 C          -3.5630   -0.4740    1.6230 C.ar    1  UNL1       -0.0327
     14 C          -3.6550   -1.1910    2.7990 C.ar    1  UNL1        0.0304
     15 N          -2.6980   -1.1920    3.7540 N.ar    1  UNL1       -0.2405
     16 C          -1.6060   -0.4300    3.5600 C.ar    1  UNL1        0.1195
     17 N          -0.6590   -0.4620    4.5830 N.pl3   1  UNL1       -0.3262
     18 C           0.6930   -0.8700    4.1760 C.3     1  UNL1        0.0220
     19 C           1.6480    0.3240    4.3190 C.3     1  UNL1       -0.0345
     20 C           3.0880   -0.0700    3.9990 C.3     1  UNL1       -0.0514
     21 C           3.5540   -1.2450    4.8540 C.3     1  UNL1       -0.0529
     22 C           2.6050   -2.4340    4.7440 C.3     1  UNL1       -0.0514
     23 C           1.1640   -2.0370    5.0580 C.3     1  UNL1       -0.0345
     24 C          -1.4450    0.3490    2.4270 C.ar    1  UNL1       -0.0112
     25 N          -1.1340    1.2080   -0.5280 N.ar    1  UNL1       -0.2435
     26 C           0.0820    0.4820   -0.4570 C.ar    1  UNL1        0.0535
     27 C           1.2930    1.0840   -0.8140 C.ar    1  UNL1       -0.0370
     28 C           2.5030    0.3890   -0.7130 C.ar    1  UNL1       -0.0521
     29 C           2.5330   -0.9370   -0.2640 C.ar    1  UNL1       -0.0178
     30 C           3.7400   -1.6450   -0.1440 C.ar    1  UNL1       -0.0540
     31 C           3.7480   -2.9680    0.2990 C.ar    1  UNL1       -0.0612
     32 C           2.5510   -3.6000    0.6210 C.ar    1  UNL1       -0.0612
     33 C           1.3440   -2.9080    0.5060 C.ar    1  UNL1       -0.0540
     34 C           1.3200   -1.5740    0.0690 C.ar    1  UNL1       -0.0159
     35 C           0.1120   -0.8590   -0.0430 C.ar    1  UNL1       -0.0299
     36 H          -4.6000    3.3280   -1.5780 H       1  UNL1        0.0548
     37 H          -2.7670    5.0500   -0.8580 H       1  UNL1        0.0308
     38 H          -4.0950    5.5000   -1.9250 H       1  UNL1        0.0308
     39 H          -1.2260    4.9610   -2.8200 H       1  UNL1        0.0560
     40 H          -2.1210    6.4720   -2.8370 H       1  UNL1        0.0560
     41 H          -1.8170    3.2660   -4.4020 H       1  UNL1        0.0560
     42 H          -3.1490    3.5710   -5.5020 H       1  UNL1        0.0560
     43 H          -3.8070    1.9620   -3.6650 H       1  UNL1        0.0308
     44 H          -4.8080    3.4020   -3.8180 H       1  UNL1        0.0308
     45 H          -4.3600   -0.5060    0.8880 H       1  UNL1        0.0640
     46 H          -4.5240   -1.8060    3.0150 H       1  UNL1        0.0830
     47 H          -1.0670   -1.1010    5.2660 H       1  UNL1        0.1477
     48 H           0.7100   -1.2170    3.1350 H       1  UNL1        0.0498
     49 H           1.5980    0.7230    5.3410 H       1  UNL1        0.0283
     50 H           1.3430    1.1400    3.6550 H       1  UNL1        0.0283
     51 H           3.7490    0.7890    4.1620 H       1  UNL1        0.0266
     52 H           3.1660   -0.3360    2.9380 H       1  UNL1        0.0266
     53 H           4.5610   -1.5470    4.5470 H       1  UNL1        0.0265
     54 H           3.6200   -0.9280    5.9020 H       1  UNL1        0.0265
     55 H           2.6550   -2.8480    3.7300 H       1  UNL1        0.0266
     56 H           2.9260   -3.2270    5.4280 H       1  UNL1        0.0266
     57 H           1.0870   -1.7620    6.1190 H       1  UNL1        0.0283
     58 H           0.5080   -2.9030    4.9120 H       1  UNL1        0.0283
     59 H          -0.5800    0.9940    2.3270 H       1  UNL1        0.0659
     60 H           1.3290    2.1190   -1.1500 H       1  UNL1        0.0638
     61 H           3.4250    0.9000   -0.9870 H       1  UNL1        0.0624
     62 H           4.6850   -1.1690   -0.3970 H       1  UNL1        0.0624
     63 H           4.6880   -3.5060    0.3860 H       1  UNL1        0.0618
     64 H           2.5550   -4.6320    0.9620 H       1  UNL1        0.0618
     65 H           0.4200   -3.4210    0.7660 H       1  UNL1        0.0624
     66 H          -0.8130   -1.3890    0.1680 H       1  UNL1        0.0644
@<TRIPOS>BOND
     1     1     2    2
     2     2     3   ar
     3     2    25   ar
     4     3     4    1
     5     3    10   ar
     6     4     5    1
     7     4     9    1
     8     4    36    1
     9     5     6    1
    10     5    37    1
    11     5    38    1
    12     6     7    1
    13     6    39    1
    14     6    40    1
    15     7     8    1
    16     8     9    1
    17     8    41    1
    18     8    42    1
    19     9    43    1
    20     9    44    1
    21    10    11   ar
    22    11    12    1
    23    11    25   ar
    24    12    13   ar
    25    12    24   ar
    26    13    14   ar
    27    13    45    1
    28    14    15   ar
    29    14    46    1
    30    15    16   ar
    31    16    17    1
    32    16    24   ar
    33    17    18    1
    34    17    47    1
    35    18    19    1
    36    18    23    1
    37    18    48    1
    38    19    20    1
    39    19    49    1
    40    19    50    1
    41    20    21    1
    42    20    51    1
    43    20    52    1
    44    21    22    1
    45    21    53    1
    46    21    54    1
    47    22    23    1
    48    22    55    1
    49    22    56    1
    50    23    57    1
    51    23    58    1
    52    24    59    1
    53    25    26    1
    54    26    27   ar
    55    26    35   ar
    56    27    28   ar
    57    27    60    1
    58    28    29   ar
    59    28    61    1
    60    29    30   ar
    61    29    34   ar
    62    30    31   ar
    63    30    62    1
    64    31    32   ar
    65    31    63    1
    66    32    33   ar
    67    32    64    1
    68    33    34   ar
    69    33    65    1
    70    34    35   ar
    71    35    66    1
@<TRIPOS>MOLECULE
AD3CC00141866-I00-C00
 54 59 0 0 0
SMALL
GASTEIGER

@<TRIPOS>ATOM
      1 C           0.1100   -7.4280   -0.1300 C.3     1  UNL1       -0.0126
      2 N          -0.0260   -5.9880    0.0780 N.3     1  UNL1       -0.3024
      3 C          -0.4860   -5.3240   -1.1610 C.3     1  UNL1        0.0144
      4 C          -0.6080   -3.7910   -0.9990 C.3     1  UNL1        0.0250
      5 N           0.6810   -3.2070   -0.5610 N.pl3   1  UNL1       -0.3273
      6 C           0.8120   -1.8090   -0.5670 C.ar    1  UNL1        0.0345
      7 C           2.0900   -1.2350   -0.4620 C.ar    1  UNL1       -0.0045
      8 C           2.2740    0.1470   -0.4780 C.ar    1  UNL1        0.1379
      9 F           3.5220    0.6250   -0.3710 F       1  UNL1       -0.2046
     10 C           1.1900    1.0020   -0.6080 C.ar    1  UNL1        0.0799
     11 C          -0.1050    0.4620   -0.7310 C.ar    1  UNL1        0.0811
     12 C          -0.2740   -0.9300   -0.7140 C.ar    1  UNL1       -0.0143
     13 N          -1.2610    1.2800   -0.8690 N.ar    1  UNL1       -0.2313
     14 C          -1.1140    2.5800   -0.8800 C.ar    1  UNL1        0.1378
     15 C          -2.2780    3.5260   -0.9940 C.3     1  UNL1        0.0327
     16 C          -2.8170    3.9330    0.3590 C.ar    1  UNL1       -0.0364
     17 C          -2.5230    5.2100    0.8880 C.ar    1  UNL1       -0.0545
     18 C          -2.9990    5.5940    2.1460 C.ar    1  UNL1       -0.0159
     19 C          -3.7580    4.6850    2.8500 C.ar    1  UNL1        0.1662
     20 C          -4.0460    3.4390    2.3460 C.ar    1  UNL1        0.1665
     21 C          -3.5910    3.0320    1.1100 C.ar    1  UNL1       -0.0126
     22 O          -4.8030    2.6970    3.1970 O.3     1  UNL1       -0.4526
     23 C          -4.9600    3.6210    4.2950 C.3     1  UNL1        0.2332
     24 O          -4.2990    4.8850    4.0810 O.3     1  UNL1       -0.4526
     25 N           0.1410    3.1740   -0.7650 N.ar    1  UNL1       -0.1962
     26 N           0.4040    4.4950   -0.7850 N.ar    1  UNL1       -0.1276
     27 C           1.7290    4.4920   -0.6720 C.ar    1  UNL1        0.2328
     28 N           2.5060    5.5690   -0.6350 N.pl3   1  UNL1       -0.3262
     29 N           2.3160    3.2690   -0.5620 N.ar    1  UNL1       -0.1935
     30 C           1.2930    2.4460   -0.6350 C.ar    1  UNL1        0.1716
     31 C           1.1930   -3.8610    0.6710 C.3     1  UNL1        0.0250
     32 C           1.2650   -5.3960    0.4880 C.3     1  UNL1        0.0144
     33 H           0.4260   -7.9200    0.7970 H       1  UNL1        0.0391
     34 H          -0.8540   -7.8680   -0.4070 H       1  UNL1        0.0391
     35 H           0.8370   -7.6700   -0.9140 H       1  UNL1        0.0391
     36 H           0.2040   -5.5410   -1.9880 H       1  UNL1        0.0442
     37 H          -1.4710   -5.7170   -1.4420 H       1  UNL1        0.0442
     38 H          -0.9030   -3.3730   -1.9690 H       1  UNL1        0.0476
     39 H          -1.3960   -3.5670   -0.2680 H       1  UNL1        0.0476
     40 H           2.9730   -1.8640   -0.3930 H       1  UNL1        0.0665
     41 H          -1.2890   -1.3050   -0.8010 H       1  UNL1        0.0657
     42 H          -2.0190    4.4050   -1.5940 H       1  UNL1        0.0392
     43 H          -3.0790    3.0200   -1.5480 H       1  UNL1        0.0392
     44 H          -1.9150    5.9120    0.3190 H       1  UNL1        0.0622
     45 H          -2.7760    6.5720    2.5570 H       1  UNL1        0.0655
     46 H          -3.8270    2.0390    0.7390 H       1  UNL1        0.0658
     47 H          -6.0300    3.8060    4.4460 H       1  UNL1        0.1166
     48 H          -4.5510    3.1600    5.2010 H       1  UNL1        0.1166
     49 H           3.4330    5.4360   -0.2510 H       1  UNL1        0.1452
     50 H           2.0700    6.4420   -0.3700 H       1  UNL1        0.1452
     51 H           0.5340   -3.6200    1.5150 H       1  UNL1        0.0476
     52 H           2.1990   -3.5120    0.9270 H       1  UNL1        0.0476
     53 H           2.0410   -5.6260   -0.2550 H       1  UNL1        0.0442
     54 H           1.5830   -5.8380    1.4400 H       1  UNL1        0.0442
@<TRIPOS>BOND
     1     1     2    1
     2     1    33    1
     3     1    34    1
     4     1    35    1
     5     2     3    1
     6     2    32    1
     7     3     4    1
     8     3    36    1
     9     3    37    1
    10     4     5    1
    11     4    38    1
    12     4    39    1
    13     5     6    1
    14     5    31    1
    15     6     7   ar
    16     6    12   ar
    17     7     8   ar
    18     7    40    1
    19     8     9    1
    20     8    10   ar
    21    10    11   ar
    22    10    30   ar
    23    11    12   ar
    24    11    13   ar
    25    12    41    1
    26    13    14   ar
    27    14    15    1
    28    14    25   ar
    29    15    16    1
    30    15    42    1
    31    15    43    1
    32    16    17   ar
    33    16    21   ar
    34    17    18   ar
    35    17    44    1
    36    18    19   ar
    37    18    45    1
    38    19    20   ar
    39    19    24    1
    40    20    21   ar
    41    20    22    1
    42    21    46    1
    43    22    23    1
    44    23    24    1
    45    23    47    1
    46    23    48    1
    47    25    26   ar
    48    25    30   ar
    49    26    27   ar
    50    27    28    1
    51    27    29   ar
    52    28    49    1
    53    28    50    1
    54    29    30   ar
    55    31    32    1
    56    31    51    1
    57    31    52    1
    58    32    53    1
    59    32    54    1
@<TRIPOS>MOLECULE
AD3CC00142699-I00-C00
 52 55 0 0 0
SMALL
GASTEIGER

@<TRIPOS>ATOM
      1 C           2.4310    2.6050   -6.7950 C.3     1  UNL1        0.0124
      2 C           1.6190    2.9000   -5.5590 C.2     1  UNL1        0.2125
      3 O           0.4820    3.3610   -5.6650 O.2     1  UNL1       -0.2759
      4 N           2.2180    2.6440   -4.3250 N.am    1  UNL1       -0.3016
      5 C           3.3750    1.7600   -4.1810 C.3     1  UNL1        0.0163
      6 C           4.2030    2.0840   -2.9430 C.3     1  UNL1       -0.0186
      7 C           3.3550    2.1770   -1.6710 C.3     1  UNL1        0.0262
      8 N           2.9170    0.8400   -1.2810 N.pl3   1  UNL1       -0.3105
      9 C           2.4320    0.6740    0.0050 C.ar    1  UNL1        0.2173
     10 N           2.8840    1.4340    1.0090 N.ar    1  UNL1       -0.2222
     11 C           2.3660    1.2050    2.2300 C.ar    1  UNL1        0.0419
     12 C           1.4100    0.2500    2.4840 C.ar    1  UNL1        0.0394
     13 C           0.8500    0.0120    3.8010 C.ar    1  UNL1       -0.0018
     14 C          -0.0970   -0.9200    3.9680 C.ar    1  UNL1        0.1934
     15 O          -0.6220   -1.1350    5.2410 O.3     1  UNL1       -0.4477
     16 C          -1.9890   -1.1740    5.3800 C.ar    1  UNL1        0.1639
     17 C          -2.5050   -2.1510    6.2340 C.ar    1  UNL1       -0.0137
     18 C          -3.8830   -2.2300    6.4450 C.ar    1  UNL1       -0.0228
     19 C          -4.7290   -1.3230    5.8110 C.ar    1  UNL1        0.1264
     20 F          -6.0500   -1.4010    6.0200 F       1  UNL1       -0.2054
     21 C          -4.2280   -0.3340    4.9750 C.ar    1  UNL1        0.0125
     22 C          -2.8550   -0.2610    4.7690 C.ar    1  UNL1        0.1681
     23 F          -2.3760    0.7180    3.9860 F       1  UNL1       -0.2015
     24 C          -0.5310   -1.7810    2.8050 C.ar    1  UNL1        0.2951
     25 O          -1.3290   -2.7010    2.9850 O.2     1  UNL1       -0.2636
     26 N           0.0210   -1.4880    1.5650 N.ar    1  UNL1       -0.2928
     27 C          -0.3670   -2.2620    0.3980 C.3     1  UNL1        0.0168
     28 C           1.0010   -0.4780    1.3840 C.ar    1  UNL1        0.1484
     29 N           1.5010   -0.2730    0.1480 N.ar    1  UNL1       -0.1964
     30 C           2.1820    3.1350   -1.8920 C.3     1  UNL1       -0.0186
     31 C           1.3770    2.7960   -3.1400 C.3     1  UNL1        0.0163
     32 H           3.3780    3.1490   -6.7650 H       1  UNL1        0.0323
     33 H           2.6020    1.5300   -6.8880 H       1  UNL1        0.0323
     34 H           1.8780    2.9410   -7.6780 H       1  UNL1        0.0323
     35 H           2.9950    0.7330   -4.1410 H       1  UNL1        0.0465
     36 H           4.0240    1.8240   -5.0580 H       1  UNL1        0.0465
     37 H           4.7010    3.0500   -3.1010 H       1  UNL1        0.0298
     38 H           4.9940    1.3340   -2.8260 H       1  UNL1        0.0298
     39 H           4.0080    2.5900   -0.8910 H       1  UNL1        0.0499
     40 H           2.2670    0.3670   -1.8990 H       1  UNL1        0.1492
     41 H           2.7620    1.8410    3.0160 H       1  UNL1        0.0838
     42 H           1.1870    0.6140    4.6370 H       1  UNL1        0.0664
     43 H          -1.8390   -2.8590    6.7210 H       1  UNL1        0.0656
     44 H          -4.3020   -2.9920    7.0940 H       1  UNL1        0.0647
     45 H          -4.8950    0.3720    4.4960 H       1  UNL1        0.0676
     46 H          -0.7570   -1.5900   -0.3730 H       1  UNL1        0.0457
     47 H           0.5040   -2.8040    0.0170 H       1  UNL1        0.0457
     48 H          -1.1460   -2.9910    0.6370 H       1  UNL1        0.0457
     49 H           2.5830    4.1510   -2.0030 H       1  UNL1        0.0298
     50 H           1.5150    3.1560   -1.0220 H       1  UNL1        0.0298
     51 H           0.6320    3.5830   -3.3040 H       1  UNL1        0.0465
     52 H           0.8250    1.8580   -3.0070 H       1  UNL1        0.0465
@<TRIPOS>BOND
     1     1     2    1
     2     1    32    1
     3     1    33    1
     4     1    34    1
     5     2     3    2
     6     2     4   am
     7     4     5    1
     8     4    31    1
     9     5     6    1
    10     5    35    1
    11     5    36    1
    12     6     7    1
    13     6    37    1
    14     6    38    1
    15     7     8    1
    16     7    30    1
    17     7    39    1
    18     8     9    1
    19     8    40    1
    20     9    10   ar
    21     9    29   ar
    22    10    11   ar
    23    11    12   ar
    24    11    41    1
    25    12    13   ar
    26    12    28   ar
    27    13    14   ar
    28    13    42    1
    29    14    15    1
    30    14    24   ar
    31    15    16    1
    32    16    17   ar
    33    16    22   ar
    34    17    18   ar
    35    17    43    1
    36    18    19   ar
    37    18    44    1
    38    19    20    1
    39    19    21   ar
    40    21    22   ar
    41    21    45    1
    42    22    23    1
    43    24    25    2
    44    24    26   ar
    45    26    27    1
    46    26    28   ar
    47    27    46    1
    48    27    47    1
    49    27    48    1
    50    28    29   ar
    51    30    31    1
    52    30    49    1
    53    30    50    1
    54    31    51    1
    55    31    52    1
@<TRIPOS>MOLECULE
AD3CC00142755-I00-C00
 54 57 0 0 0
SMALL
GASTEIGER

@<TRIPOS>ATOM
      1 O          -0.6660    3.4140   -2.1130 O.2     1  UNL1       -0.2636
      2 C          -0.7950    2.1910   -2.1420 C.ar    1  UNL1        0.2954
      3 C          -1.8420    1.5460   -3.0200 C.ar    1  UNL1        0.1935
      4 O          -2.7170    2.3160   -3.7840 O.3     1  UNL1       -0.4477
      5 C          -3.3360    3.3920   -3.1940 C.ar    1  UNL1        0.1639
      6 C          -3.9630    3.3080   -1.9470 C.ar    1  UNL1       -0.0137
      7 C          -4.6030    4.4330   -1.4240 C.ar    1  UNL1       -0.0228
      8 C          -4.6230    5.6200   -2.1540 C.ar    1  UNL1        0.1264
      9 F          -5.2440    6.6920   -1.6450 F       1  UNL1       -0.2054
     10 C          -4.0250    5.7060   -3.4040 C.ar    1  UNL1        0.0125
     11 C          -3.3890    4.5840   -3.9200 C.ar    1  UNL1        0.1681
     12 F          -2.8260    4.6580   -5.1350 F       1  UNL1       -0.2015
     13 C          -1.8850    0.2130   -3.1400 C.ar    1  UNL1       -0.0018
     14 C          -0.9660   -0.6180   -2.3850 C.ar    1  UNL1        0.0394
     15 C          -0.9410   -1.9900   -2.4700 C.ar    1  UNL1        0.0419
     16 N          -0.0860   -2.7630   -1.7750 N.ar    1  UNL1       -0.2222
     17 C           0.7870   -2.1410   -0.9750 C.ar    1  UNL1        0.2173
     18 N           1.7210   -2.8590   -0.2570 N.pl3   1  UNL1       -0.3104
     19 C           1.4030   -4.2350    0.1050 C.3     1  UNL1        0.0275
     20 C           2.6900   -4.9280    0.5660 C.3     1  UNL1       -0.0109
     21 C           2.3790   -6.3260    1.0770 C.3     1  UNL1        0.0493
     22 O           1.4150   -6.2730    2.1280 O.3     1  UNL1       -0.3796
     23 C           0.1720   -5.7230    1.6950 C.3     1  UNL1        0.0493
     24 C           0.3560   -4.2890    1.2210 C.3     1  UNL1       -0.0109
     25 N           0.8410   -0.8120   -0.8240 N.ar    1  UNL1       -0.1964
     26 C          -0.0430   -0.0660   -1.5200 C.ar    1  UNL1        0.1487
     27 N           0.0000    1.3440   -1.3760 N.ar    1  UNL1       -0.2871
     28 C           0.9910    1.9360   -0.4680 C.3     1  UNL1        0.0563
     29 C           2.3800    2.0660   -1.1150 C.3     1  UNL1        0.0962
     30 O           3.1370    0.8480   -0.9770 O.3     1  UNL1       -0.3878
     31 C           3.2010    3.1690   -0.4420 C.3     1  UNL1        0.0718
     32 O           4.5040    3.2140   -1.0250 O.3     1  UNL1       -0.3924
     33 H          -3.9650    2.3810   -1.3810 H       1  UNL1        0.0656
     34 H          -5.0890    4.3950   -0.4530 H       1  UNL1        0.0647
     35 H          -4.0530    6.6310   -3.9680 H       1  UNL1        0.0676
     36 H          -2.6050   -0.2590   -3.7990 H       1  UNL1        0.0664
     37 H          -1.6210   -2.5360   -3.1180 H       1  UNL1        0.0838
     38 H           2.0840   -2.2720    0.4860 H       1  UNL1        0.1492
     39 H           1.0330   -4.7840   -0.7710 H       1  UNL1        0.0500
     40 H           3.4170   -4.9750   -0.2520 H       1  UNL1        0.0305
     41 H           3.1500   -4.3440    1.3740 H       1  UNL1        0.0305
     42 H           2.0090   -6.9730    0.2730 H       1  UNL1        0.0560
     43 H           3.2870   -6.7860    1.4800 H       1  UNL1        0.0560
     44 H          -0.2530   -6.3550    0.9060 H       1  UNL1        0.0560
     45 H          -0.5170   -5.7480    2.5450 H       1  UNL1        0.0560
     46 H          -0.6040   -3.8840    0.8830 H       1  UNL1        0.0305
     47 H           0.6890   -3.6700    2.0640 H       1  UNL1        0.0305
     48 H           0.6270    2.9290   -0.1780 H       1  UNL1        0.0520
     49 H           1.0340    1.3420    0.4530 H       1  UNL1        0.0520
     50 H           2.3050    2.2700   -2.1890 H       1  UNL1        0.0634
     51 H           2.5100    0.1030   -1.0930 H       1  UNL1        0.2100
     52 H           3.3310    2.9670    0.6260 H       1  UNL1        0.0583
     53 H           2.7340    4.1500   -0.5640 H       1  UNL1        0.0583
     54 H           4.7680    2.2750   -1.1160 H       1  UNL1        0.2095
@<TRIPOS>BOND
     1     1     2    2
     2     2     3   ar
     3     2    27   ar
     4     3     4    1
     5     3    13   ar
     6     4     5    1
     7     5     6   ar
     8     5    11   ar
     9     6     7   ar
    10     6    33    1
    11     7     8   ar
    12     7    34    1
    13     8     9    1
    14     8    10   ar
    15    10    11   ar
    16    10    35    1
    17    11    12    1
    18    13    14   ar
    19    13    36    1
    20    14    15   ar
    21    14    26   ar
    22    15    16   ar
    23    15    37    1
    24    16    17   ar
    25    17    18    1
    26    17    25   ar
    27    18    19    1
    28    18    38    1
    29    19    20    1
    30    19    24    1
    31    19    39    1
    32    20    21    1
    33    20    40    1
    34    20    41    1
    35    21    22    1
    36    21    42    1
    37    21    43    1
    38    22    23    1
    39    23    24    1
    40    23    44    1
    41    23    45    1
    42    24    46    1
    43    24    47    1
    44    25    26   ar
    45    26    27   ar
    46    27    28    1
    47    28    29    1
    48    28    48    1
    49    28    49    1
    50    29    30    1
    51    29    31    1
    52    29    50    1
    53    30    51    1
    54    31    32    1
    55    31    52    1
    56    31    53    1
    57    32    54    1
@<TRIPOS>MOLECULE
AD3CC00143262-I00-C01
 46 49 0 0 0
SMALL
GASTEIGER

@<TRIPOS>ATOM
      1 C           5.9110   -1.7370    0.2100 C.3     1  UNL1       -0.0469
      2 C           5.5800   -1.0360   -1.1060 C.3     1  UNL1        0.0168
      3 C           6.4430   -1.5930   -2.2380 C.3     1  UNL1       -0.0469
      4 N           4.1790   -1.2450   -1.4480 N.pl3   1  UNL1       -0.3211
      5 C           3.2270   -0.4670   -0.8850 C.ar    1  UNL1        0.1588
      6 N           3.4430    0.6620   -0.2550 N.ar    1  UNL1       -0.2326
      7 C           2.2470    1.1870    0.1950 C.ar    1  UNL1        0.0461
      8 C           1.1060    0.4600   -0.0960 C.ar    1  UNL1        0.0589
      9 C          -0.2870    0.7660    0.2480 C.ar    1  UNL1        0.0836
     10 C          -1.3710    0.0230   -0.1670 C.ar    1  UNL1       -0.0090
     11 C          -2.6150    0.4500    0.2560 C.ar    1  UNL1        0.0769
     12 C          -3.8600   -0.2320   -0.1300 C.ar    1  UNL1        0.0188
     13 C          -4.8510    0.5020   -0.8150 C.ar    1  UNL1       -0.0512
     14 C          -6.0490   -0.0900   -1.2210 C.ar    1  UNL1       -0.0611
     15 C          -6.2890   -1.4320   -0.9440 C.ar    1  UNL1       -0.0603
     16 C          -5.3340   -2.1770   -0.2560 C.ar    1  UNL1       -0.0427
     17 C          -4.1310   -1.5850    0.1510 C.ar    1  UNL1        0.0501
     18 CL         -3.0290   -2.5840    1.0390 Cl      1  UNL1       -0.0829
     19 N          -2.7770    1.5550    1.0130 N.ar    1  UNL1       -0.2259
     20 C          -1.6660    2.2260    1.3770 C.ar    1  UNL1        0.1795
     21 C          -1.8330    3.4370    2.2220 C.ar    1  UNL1        0.1078
     22 C          -3.0860    3.8360    2.6990 C.ar    1  UNL1       -0.0326
     23 C          -3.1940    4.9800    3.4890 C.ar    1  UNL1       -0.0582
     24 C          -2.0510    5.7080    3.7890 C.ar    1  UNL1       -0.0436
     25 C          -0.8440    5.2600    3.2850 C.ar    1  UNL1        0.0284
     26 N          -0.7110    4.1570    2.5190 N.ar    1  UNL1       -0.2518
     27 N          -0.4220    1.8630    1.0150 N.ar    1  UNL1       -0.2253
     28 S           1.5760   -0.9460   -0.9640 S.2     1  UNL1       -0.0509
     29 H           6.9690   -1.6120    0.4620 H       1  UNL1        0.0247
     30 H           5.3200   -1.3260    1.0350 H       1  UNL1        0.0247
     31 H           5.6980   -2.8110    0.1550 H       1  UNL1        0.0247
     32 H           5.8040    0.0340   -1.0140 H       1  UNL1        0.0492
     33 H           7.5070   -1.4420   -2.0280 H       1  UNL1        0.0247
     34 H           6.2720   -2.6670   -2.3810 H       1  UNL1        0.0247
     35 H           6.2100   -1.0930   -3.1850 H       1  UNL1        0.0247
     36 H           3.9170   -2.1970   -1.6760 H       1  UNL1        0.1482
     37 H           2.2570    2.1240    0.7420 H       1  UNL1        0.0842
     38 H          -1.2710   -0.8490   -0.7990 H       1  UNL1        0.0661
     39 H          -4.6840    1.5560   -1.0380 H       1  UNL1        0.0625
     40 H          -6.7940    0.5000   -1.7500 H       1  UNL1        0.0618
     41 H          -7.2220   -1.8950   -1.2560 H       1  UNL1        0.0618
     42 H          -5.5340   -3.2220   -0.0310 H       1  UNL1        0.0632
     43 H          -3.9760    3.2590    2.4630 H       1  UNL1        0.0640
     44 H          -4.1630    5.2960    3.8650 H       1  UNL1        0.0619
     45 H          -2.0990    6.6020    4.4000 H       1  UNL1        0.0633
     46 H           0.0810    5.7920    3.4900 H       1  UNL1        0.0830
@<TRIPOS>BOND
     1     1     2    1
     2     1    29    1
     3     1    30    1
     4     1    31    1
     5     2     3    1
     6     2     4    1
     7     2    32    1
     8     3    33    1
     9     3    34    1
    10     3    35    1
    11     4     5    1
    12     4    36    1
    13     5     6   ar
    14     5    28   ar
    15     6     7   ar
    16     7     8   ar
    17     7    37    1
    18     8     9    1
    19     8    28   ar
    20     9    10   ar
    21     9    27   ar
    22    10    11   ar
    23    10    38    1
    24    11    12    1
    25    11    19   ar
    26    12    13   ar
    27    12    17   ar
    28    13    14   ar
    29    13    39    1
    30    14    15   ar
    31    14    40    1
    32    15    16   ar
    33    15    41    1
    34    16    17   ar
    35    16    42    1
    36    17    18    1
    37    19    20   ar
    38    20    21    1
    39    20    27   ar
    40    21    22   ar
    41    21    26   ar
    42    22    23   ar
    43    22    43    1
    44    23    24   ar
    45    23    44    1
    46    24    25   ar
    47    24    45    1
    48    25    26   ar
    49    25    46    1
@<TRIPOS>MOLECULE
AD3CC00143312-I00-C00
 52 56 0 0 0
SMALL
GASTEIGER

@<TRIPOS>ATOM
      1 C           3.4540   -1.4740   -6.1660 C.3     1  UNL1       -0.0107
      2 S           2.9400   -0.1430   -5.0560 S.3     1  UNL1       -0.0913
      3 C           1.6790   -0.9320   -4.1890 C.ar    1  UNL1        0.1671
      4 N           1.2190   -2.1420   -4.3660 N.ar    1  UNL1       -0.2214
      5 C           0.2260   -2.2870   -3.4180 C.ar    1  UNL1        0.0976
      6 C          -0.5130   -3.5300   -3.2780 C.ar    1  UNL1        0.0026
      7 C          -0.9030   -4.2280   -4.4320 C.ar    1  UNL1       -0.0498
      8 C          -1.6100   -5.4280   -4.3290 C.ar    1  UNL1       -0.0258
      9 C          -1.9180   -5.9340   -3.0730 C.ar    1  UNL1        0.1234
     10 F          -2.5970   -7.0840   -2.9730 F       1  UNL1       -0.2055
     11 C          -1.5260   -5.2680   -1.9170 C.ar    1  UNL1       -0.0258
     12 C          -0.8180   -4.0680   -2.0190 C.ar    1  UNL1       -0.0498
     13 C           0.0570   -1.1160   -2.6850 C.ar    1  UNL1        0.0748
     14 C          -0.8840   -0.6880   -1.6530 C.ar    1  UNL1        0.0051
     15 C          -2.2470   -0.9430   -1.7840 C.ar    1  UNL1       -0.0343
     16 C          -3.0940   -0.5160   -0.7790 C.ar    1  UNL1        0.0303
     17 N          -2.6780    0.1440    0.3230 N.ar    1  UNL1       -0.2401
     18 C          -1.3590    0.4010    0.4340 C.ar    1  UNL1        0.1257
     19 N          -1.0300    1.0940    1.6000 N.am    1  UNL1       -0.2665
     20 C           0.1910    1.5890    1.9740 C.2     1  UNL1        0.2486
     21 O           1.2220    1.5710    1.3120 O.2     1  UNL1       -0.2700
     22 C           0.1840    2.2730    3.2960 C.2     1  UNL1        0.0523
     23 C          -0.4890    1.7850    4.3470 C.2     1  UNL1       -0.0397
     24 C          -0.3870    2.5220    5.6010 C.ar    1  UNL1        0.0172
     25 C          -0.9310    2.0070    6.7830 C.ar    1  UNL1       -0.0511
     26 C          -0.8550    2.7410    7.9690 C.ar    1  UNL1       -0.0610
     27 C          -0.2450    3.9950    7.9780 C.ar    1  UNL1       -0.0583
     28 C           0.2940    4.5150    6.8020 C.ar    1  UNL1       -0.0193
     29 C           0.2330    3.7760    5.6200 C.ar    1  UNL1        0.1281
     30 O           0.7620    4.3670    4.5050 O.3     1  UNL1       -0.4866
     31 C           1.0460    3.4970    3.3940 C.3     1  UNL1        0.1195
     32 C          -0.4350   -0.0020   -0.5200 C.ar    1  UNL1       -0.0123
     33 N           1.0300   -0.2770   -3.1900 N.ar    1  UNL1       -0.3324
     34 H           4.2750   -1.1190   -6.7960 H       1  UNL1        0.0345
     35 H           2.6270   -1.7760   -6.8150 H       1  UNL1        0.0345
     36 H           3.8040   -2.3380   -5.5960 H       1  UNL1        0.0345
     37 H          -0.6510   -3.8350   -5.4160 H       1  UNL1        0.0625
     38 H          -1.9160   -5.9680   -5.2190 H       1  UNL1        0.0646
     39 H          -1.7660   -5.6900   -0.9460 H       1  UNL1        0.0646
     40 H          -0.4950   -3.5680   -1.1090 H       1  UNL1        0.0625
     41 H          -2.6510   -1.4590   -2.6490 H       1  UNL1        0.0639
     42 H          -4.1640   -0.6970   -0.8360 H       1  UNL1        0.0830
     43 H          -1.8440    1.2830    2.1690 H       1  UNL1        0.1565
     44 H          -1.0680    0.8700    4.3200 H       1  UNL1        0.0630
     45 H          -1.4180    1.0350    6.7930 H       1  UNL1        0.0625
     46 H          -1.2770    2.3360    8.8860 H       1  UNL1        0.0618
     47 H          -0.1920    4.5690    8.9000 H       1  UNL1        0.0619
     48 H           0.7640    5.4950    6.8050 H       1  UNL1        0.0654
     49 H           0.9230    4.1100    2.4940 H       1  UNL1        0.0749
     50 H           2.1030    3.2100    3.4550 H       1  UNL1        0.0749
     51 H           0.6230    0.1870   -0.3920 H       1  UNL1        0.0658
     52 H           1.2150    0.6740   -2.9060 H       1  UNL1        0.1679
@<TRIPOS>BOND
     1     1     2    1
     2     1    34    1
     3     1    35    1
     4     1    36    1
     5     2     3    1
     6     3     4   ar
     7     3    33   ar
     8     4     5   ar
     9     5     6    1
    10     5    13   ar
    11     6     7   ar
    12     6    12   ar
    13     7     8   ar
    14     7    37    1
    15     8     9   ar
    16     8    38    1
    17     9    10    1
    18     9    11   ar
    19    11    12   ar
    20    11    39    1
    21    12    40    1
    22    13    14    1
    23    13    33   ar
    24    14    15   ar
    25    14    32   ar
    26    15    16   ar
    27    15    41    1
    28    16    17   ar
    29    16    42    1
    30    17    18   ar
    31    18    19    1
    32    18    32   ar
    33    19    20   am
    34    19    43    1
    35    20    21    2
    36    20    22    1
    37    22    23    2
    38    22    31    1
    39    23    24    1
    40    23    44    1
    41    24    25   ar
    42    24    29   ar
    43    25    26   ar
    44    25    45    1
    45    26    27   ar
    46    26    46    1
    47    27    28   ar
    48    27    47    1
    49    28    29   ar
    50    28    48    1
    51    29    30    1
    52    30    31    1
    53    31    49    1
    54    31    50    1
    55    32    51    1
    56    33    52    1
@<TRIPOS>MOLECULE
AD3CC00143414-I00-C00
 47 50 0 0 0
SMALL
GASTEIGER

@<TRIPOS>ATOM
      1 C          -2.2010    0.4150    3.6800 C.3     1  UNL1       -0.0380
      2 C          -0.8520   -0.0760    3.2240 C.ar    1  UNL1       -0.0292
      3 C           0.0980   -0.4090    4.2050 C.ar    1  UNL1       -0.0564
      4 C           1.3660   -0.8610    3.8470 C.ar    1  UNL1       -0.0493
      5 C           1.7070   -0.9900    2.5000 C.ar    1  UNL1        0.0388
      6 C           3.0730   -1.4840    2.1600 C.2     1  UNL1        0.2494
      7 O           3.6480   -2.2150    2.9610 O.2     1  UNL1       -0.2698
      8 N           3.5890   -1.0370    0.9650 N.am    1  UNL1       -0.2637
      9 C           4.8270   -1.3750    0.4640 C.ar    1  UNL1        0.1679
     10 C           5.8020   -2.2510    0.9910 C.ar    1  UNL1        0.0192
     11 C           6.8270   -2.2090    0.0830 C.ar    1  UNL1        0.1261
     12 O           6.5000   -1.3670   -0.9250 O.2     1  UNL1       -0.3611
     13 N           5.2420   -0.8410   -0.6910 N.ar    1  UNL1       -0.0631
     14 C           0.7590   -0.6840    1.5140 C.ar    1  UNL1       -0.0281
     15 C          -0.5140   -0.2080    1.8590 C.ar    1  UNL1        0.0373
     16 N          -1.4850    0.1220    0.8810 N.am    1  UNL1       -0.2811
     17 C          -1.2980    0.2470   -0.4870 C.2     1  UNL1        0.2531
     18 O          -0.2170    0.1650   -1.0620 O.2     1  UNL1       -0.2697
     19 C          -2.5260    0.5260   -1.2240 C.ar    1  UNL1        0.0962
     20 C          -3.8690    0.2630   -0.8790 C.ar    1  UNL1        0.0639
     21 N          -4.7460    0.6570   -1.8000 N.ar    1  UNL1       -0.1709
     22 N          -3.9730    1.1550   -2.8130 N.ar    1  UNL1       -0.2002
     23 C          -4.5560    1.6200   -4.0400 C.ar    1  UNL1        0.1559
     24 C          -5.9450    1.6050   -4.1700 C.ar    1  UNL1       -0.0174
     25 C          -6.5130    2.0490   -5.3630 C.ar    1  UNL1       -0.0568
     26 C          -5.6890    2.4930   -6.3890 C.ar    1  UNL1       -0.0435
     27 C          -4.3200    2.4740   -6.1850 C.ar    1  UNL1        0.0300
     28 N          -3.7350    2.0490   -5.0440 N.ar    1  UNL1       -0.2361
     29 C          -2.6150    1.1120   -2.4740 C.ar    1  UNL1        0.1337
     30 N          -1.6300    1.5910   -3.2770 N.pl3   1  UNL1       -0.3424
     31 H          -2.9880   -0.2650    3.3380 H       1  UNL1        0.0278
     32 H          -2.2650    0.4670    4.7730 H       1  UNL1        0.0278
     33 H          -2.3900    1.4210    3.2940 H       1  UNL1        0.0278
     34 H          -0.1440   -0.3170    5.2630 H       1  UNL1        0.0621
     35 H           2.0870   -1.1140    4.6230 H       1  UNL1        0.0625
     36 H           3.0930   -0.3680    0.3910 H       1  UNL1        0.1566
     37 H           5.7670   -2.8320    1.9000 H       1  UNL1        0.0684
     38 H           7.7940   -2.6820    0.0070 H       1  UNL1        0.1058
     39 H           1.0130   -0.8630    0.4750 H       1  UNL1        0.0644
     40 H          -2.3880    0.4030    1.2320 H       1  UNL1        0.1551
     41 H          -4.2540   -0.2130    0.0140 H       1  UNL1        0.0856
     42 H          -6.5880    1.2580   -3.3660 H       1  UNL1        0.0655
     43 H          -7.5930    2.0480   -5.4860 H       1  UNL1        0.0619
     44 H          -6.1040    2.8440   -7.3280 H       1  UNL1        0.0633
     45 H          -3.6370    2.8110   -6.9600 H       1  UNL1        0.0830
     46 H          -1.8590    1.8050   -4.2540 H       1  UNL1        0.1437
     47 H          -0.6710    1.2700   -3.1380 H       1  UNL1        0.1437
@<TRIPOS>BOND
     1     1     2    1
     2     1    31    1
     3     1    32    1
     4     1    33    1
     5     2     3   ar
     6     2    15   ar
     7     3     4   ar
     8     3    34    1
     9     4     5   ar
    10     4    35    1
    11     5     6    1
    12     5    14   ar
    13     6     7    2
    14     6     8   am
    15     8     9    1
    16     8    36    1
    17     9    10   ar
    18     9    13   ar
    19    10    11   ar
    20    10    37    1
    21    11    12   ar
    22    11    38    1
    23    12    13   ar
    24    14    15   ar
    25    14    39    1
    26    15    16    1
    27    16    17   am
    28    16    40    1
    29    17    18    2
    30    17    19    1
    31    19    20   ar
    32    19    29   ar
    33    20    21   ar
    34    20    41    1
    35    21    22   ar
    36    22    23    1
    37    22    29   ar
    38    23    24   ar
    39    23    28   ar
    40    24    25   ar
    41    24    42    1
    42    25    26   ar
    43    25    43    1
    44    26    27   ar
    45    26    44    1
    46    27    28   ar
    47    27    45    1
    48    29    30    1
    49    30    46    1
    50    30    47    1
@<TRIPOS>MOLECULE
AD3CC00143695-I00-C00
 55 59 0 0 0
SMALL
GASTEIGER

@<TRIPOS>ATOM
      1 C           2.9830   -0.5320   -1.5270 C.3     1  UNL1       -0.0377
      2 C           2.6710   -1.1480   -0.1950 C.ar    1  UNL1       -0.0244
      3 C           3.6960   -1.7260    0.5540 C.ar    1  UNL1        0.0319
      4 N           3.5310   -2.2960    1.7670 N.ar    1  UNL1       -0.2501
      5 C           2.2700   -2.2710    2.2780 C.ar    1  UNL1        0.1259
      6 C           2.0870   -2.9060    3.6210 C.2     1  UNL1        0.2626
      7 O           0.9830   -2.9690    4.1530 O.2     1  UNL1       -0.2685
      8 N           3.2550   -3.3970    4.1710 N.am    1  UNL1       -0.3072
      9 C           3.3130   -4.0460    5.4360 C.3     1  UNL1        0.0236
     10 C           4.5800   -4.7130    5.8980 C.3     1  UNL1       -0.0328
     11 C           3.3910   -5.5450    5.5190 C.3     1  UNL1       -0.0328
     12 C           1.1820   -1.7100    1.6270 C.ar    1  UNL1       -0.0230
     13 C           1.3830   -1.1330    0.3690 C.ar    1  UNL1       -0.0062
     14 C           0.2270   -0.5330   -0.3260 C.ar    1  UNL1        0.0477
     15 C          -0.6780   -1.3420   -0.8900 C.ar    1  UNL1       -0.0381
     16 C          -1.8350   -0.7940   -1.5860 C.ar    1  UNL1        0.0213
     17 C          -2.7530   -1.6650   -2.1550 C.ar    1  UNL1        0.0591
     18 N          -3.8430   -1.2470   -2.8110 N.ar    1  UNL1       -0.1564
     19 N          -4.0640    0.0840   -2.9200 N.ar    1  UNL1       -0.1471
     20 C          -3.2010    0.9890   -2.3810 C.ar    1  UNL1        0.1179
     21 C          -3.6900    2.3560   -2.6110 C.ar    1  UNL1        0.0158
     22 C          -4.4690    2.9800   -1.6150 C.ar    1  UNL1       -0.0519
     23 C          -4.9910    4.2610   -1.8010 C.ar    1  UNL1       -0.0611
     24 C          -4.7640    4.9350   -2.9950 C.ar    1  UNL1       -0.0612
     25 C          -4.0230    4.3260   -4.0070 C.ar    1  UNL1       -0.0495
     26 C          -3.4820    3.0360   -3.8340 C.ar    1  UNL1        0.0641
     27 C          -2.7150    2.3980   -4.9720 C.3     1  UNL1        0.4180
     28 F          -1.5540    1.8080   -4.5660 F       1  UNL1       -0.1659
     29 F          -2.3380    3.2980   -5.9270 F       1  UNL1       -0.1659
     30 F          -3.4230    1.4430   -5.6280 F       1  UNL1       -0.1659
     31 C          -2.0370    0.5910   -1.6930 C.ar    1  UNL1        0.0811
     32 N          -1.0390    1.4540   -1.1010 N.ar    1  UNL1       -0.3087
     33 C          -1.1250    2.9000   -1.2000 C.3     1  UNL1        0.0154
     34 C           0.0690    0.9520   -0.4100 C.ar    1  UNL1        0.2593
     35 O           0.9160    1.6690    0.1240 O.2     1  UNL1       -0.2670
     36 H           2.2450   -0.8280   -2.2790 H       1  UNL1        0.0278
     37 H           3.0040    0.5590   -1.4460 H       1  UNL1        0.0278
     38 H           3.9610   -0.8610   -1.8970 H       1  UNL1        0.0278
     39 H           4.7180   -1.7480    0.1810 H       1  UNL1        0.0832
     40 H           4.0980   -3.2670    3.6170 H       1  UNL1        0.1493
     41 H           2.7230   -3.5450    6.2000 H       1  UNL1        0.0498
     42 H           5.4360   -4.7230    5.2350 H       1  UNL1        0.0284
     43 H           4.8330   -4.6380    6.9490 H       1  UNL1        0.0284
     44 H           2.8310   -6.0310    6.3100 H       1  UNL1        0.0284
     45 H           3.4330   -6.1090    4.5950 H       1  UNL1        0.0284
     46 H           0.2040   -1.7150    2.0990 H       1  UNL1        0.0647
     47 H          -0.5720   -2.4230   -0.8430 H       1  UNL1        0.0632
     48 H          -2.6430   -2.7430   -2.1040 H       1  UNL1        0.0855
     49 H          -4.6790    2.4590   -0.6810 H       1  UNL1        0.0624
     50 H          -5.5860    4.7250   -1.0180 H       1  UNL1        0.0618
     51 H          -5.1770    5.9300   -3.1460 H       1  UNL1        0.0618
     52 H          -3.8740    4.8620   -4.9450 H       1  UNL1        0.0623
     53 H          -1.9790    3.2550   -0.6200 H       1  UNL1        0.0457
     54 H          -1.1820    3.1990   -2.2480 H       1  UNL1        0.0457
     55 H          -0.2410    3.3980   -0.7900 H       1  UNL1        0.0457
@<TRIPOS>BOND
     1     1     2    1
     2     1    36    1
     3     1    37    1
     4     1    38    1
     5     2     3   ar
     6     2    13   ar
     7     3     4   ar
     8     3    39    1
     9     4     5   ar
    10     5     6    1
    11     5    12   ar
    12     6     7    2
    13     6     8   am
    14     8     9    1
    15     8    40    1
    16     9    10    1
    17     9    11    1
    18     9    41    1
    19    10    11    1
    20    10    42    1
    21    10    43    1
    22    11    44    1
    23    11    45    1
    24    12    13   ar
    25    12    46    1
    26    13    14    1
    27    14    15   ar
    28    14    34   ar
    29    15    16   ar
    30    15    47    1
    31    16    17   ar
    32    16    31   ar
    33    17    18   ar
    34    17    48    1
    35    18    19   ar
    36    19    20   ar
    37    20    21    1
    38    20    31   ar
    39    21    22   ar
    40    21    26   ar
    41    22    23   ar
    42    22    49    1
    43    23    24   ar
    44    23    50    1
    45    24    25   ar
    46    24    51    1
    47    25    26   ar
    48    25    52    1
    49    26    27    1
    50    27    28    1
    51    27    29    1
    52    27    30    1
    53    31    32   ar
    54    32    33    1
    55    32    34   ar
    56    33    53    1
    57    33    54    1
    58    33    55    1
    59    34    35    2
@<TRIPOS>MOLECULE
AD3CC00144710-I01-C00
 49 52 0 0 0
SMALL
GASTEIGER

@<TRIPOS>ATOM
      1 C           5.9810    2.8900    0.1370 C.3     1  UNL1        0.1055
      2 S           5.0160    3.7150    1.4220 S.3     1  UNL1        0.0226
      3 O           4.5210    5.1910    0.8380 O.co2   1  UNL1       -0.6111
      4 C           3.5620    2.6610    1.3000 C.ar    1  UNL1        0.3242
      5 N           3.5560    1.3520    1.4040 N.ar    1  UNL1       -0.1831
      6 C           2.2350    0.9860    1.2570 C.ar    1  UNL1        0.1014
      7 C           1.8110   -0.4020    1.3270 C.ar    1  UNL1        0.0028
      8 C           0.6530   -0.7820    2.0240 C.ar    1  UNL1       -0.0498
      9 C           0.2620   -2.1220    2.0670 C.ar    1  UNL1       -0.0258
     10 C           1.0320   -3.0810    1.4210 C.ar    1  UNL1        0.1234
     11 F           0.6510   -4.3640    1.4560 F       1  UNL1       -0.2055
     12 C           2.1910   -2.7290    0.7400 C.ar    1  UNL1       -0.0258
     13 C           2.5840   -1.3900    0.6990 C.ar    1  UNL1       -0.0498
     14 C           1.4300    2.0950    1.0170 C.ar    1  UNL1        0.0778
     15 C           0.0150    2.2590    0.7040 C.ar    1  UNL1        0.0052
     16 C          -0.7650    3.1960    1.3760 C.ar    1  UNL1       -0.0343
     17 C          -2.1040    3.2840    1.0420 C.ar    1  UNL1        0.0303
     18 N          -2.7010    2.5110    0.1090 N.ar    1  UNL1       -0.2405
     19 C          -1.9430    1.6040   -0.5330 C.ar    1  UNL1        0.1195
     20 N          -2.6090    0.8370   -1.4830 N.pl3   1  UNL1       -0.3261
     21 C          -2.4720   -0.6210   -1.3940 C.3     1  UNL1        0.0261
     22 C          -3.0970   -1.2430   -2.6470 C.3     1  UNL1       -0.0109
     23 C          -3.0870   -2.7600   -2.5400 C.3     1  UNL1        0.0493
     24 O          -3.7650   -3.1850   -1.3600 O.3     1  UNL1       -0.3796
     25 C          -3.1420   -2.6990   -0.1720 C.3     1  UNL1        0.0493
     26 C          -3.1550   -1.1780   -0.1410 C.3     1  UNL1       -0.0109
     27 C          -0.5860    1.4670   -0.2780 C.ar    1  UNL1       -0.0127
     28 N           2.3090    3.1530    1.0710 N.ar    1  UNL1       -0.2969
     29 H           6.8990    3.4590   -0.0280 H       1  UNL1        0.0809
     30 H           6.2400    1.8790    0.4620 H       1  UNL1        0.0809
     31 H           5.4110    2.8500   -0.7950 H       1  UNL1        0.0809
     32 H           0.0520   -0.0410    2.5470 H       1  UNL1        0.0625
     33 H          -0.6320   -2.4220    2.6050 H       1  UNL1        0.0646
     34 H           2.7840   -3.4960    0.2520 H       1  UNL1        0.0646
     35 H           3.4960   -1.1140    0.1720 H       1  UNL1        0.0625
     36 H          -0.3580    3.8350    2.1510 H       1  UNL1        0.0639
     37 H          -2.7580    3.9980    1.5340 H       1  UNL1        0.0830
     38 H          -3.5810    1.1440   -1.4310 H       1  UNL1        0.1477
     39 H          -1.4120   -0.9040   -1.3820 H       1  UNL1        0.0499
     40 H          -4.1330   -0.8960   -2.7490 H       1  UNL1        0.0305
     41 H          -2.5580   -0.9220   -3.5460 H       1  UNL1        0.0305
     42 H          -3.6060   -3.1970   -3.3990 H       1  UNL1        0.0560
     43 H          -2.0640   -3.1550   -2.5360 H       1  UNL1        0.0560
     44 H          -2.1210   -3.0930   -0.1100 H       1  UNL1        0.0560
     45 H          -3.7000   -3.0940    0.6830 H       1  UNL1        0.0560
     46 H          -4.1950   -0.8270   -0.1060 H       1  UNL1        0.0305
     47 H          -2.6630   -0.8220    0.7700 H       1  UNL1        0.0305
     48 H           0.0040    0.7580   -0.8480 H       1  UNL1        0.0658
     49 H           2.1040    4.1300    0.9070 H       1  UNL1        0.1716
@<TRIPOS>UNITY_ATOM_ATTR
2 1
charge 1
3 1
charge -1
@<TRIPOS>BOND
     1     1     2    1
     2     1    29    1
     3     1    30    1
     4     1    31    1
     5     2     3    1
     6     2     4    1
     7     4     5   ar
     8     4    28   ar
     9     5     6   ar
    10     6     7    1
    11     6    14   ar
    12     7     8   ar
    13     7    13   ar
    14     8     9   ar
    15     8    32    1
    16     9    10   ar
    17     9    33    1
    18    10    11    1
    19    10    12   ar
    20    12    13   ar
    21    12    34    1
    22    13    35    1
    23    14    15    1
    24    14    28   ar
    25    15    16   ar
    26    15    27   ar
    27    16    17   ar
    28    16    36    1
    29    17    18   ar
    30    17    37    1
    31    18    19   ar
    32    19    20    1
    33    19    27   ar
    34    20    21    1
    35    20    38    1
    36    21    22    1
    37    21    26    1
    38    21    39    1
    39    22    23    1
    40    22    40    1
    41    22    41    1
    42    23    24    1
    43    23    42    1
    44    23    43    1
    45    24    25    1
    46    25    26    1
    47    25    44    1
    48    25    45    1
    49    26    46    1
    50    26    47    1
    51    27    48    1
    52    28    49    1
@<TRIPOS>MOLECULE
AD3CC00146657-I00-C00
 49 50 0 0 0
SMALL
GASTEIGER

@<TRIPOS>ATOM
      1 C          -2.0520   -2.8620   -5.0280 C.3     1  UNL1        0.0788
      2 O          -0.8720   -2.8550   -4.2320 O.3     1  UNL1       -0.4950
      3 C          -1.0240   -2.5500   -2.9080 C.ar    1  UNL1        0.1239
      4 C          -2.2250   -2.2900   -2.2600 C.ar    1  UNL1        0.0224
      5 C          -2.2260   -2.0000   -0.8950 C.ar    1  UNL1        0.1346
      6 O          -3.4650   -1.8120   -0.3320 O.3     1  UNL1       -0.5058
      7 C          -1.0280   -1.9230   -0.1590 C.ar    1  UNL1        0.1036
      8 C           0.1940   -2.2210   -0.7970 C.ar    1  UNL1       -0.0264
      9 C           0.1660   -2.5290   -2.1740 C.ar    1  UNL1       -0.0158
     10 C           1.5280   -2.3000   -0.0890 C.3     1  UNL1       -0.0266
     11 C           2.5660   -1.2690   -0.5660 C.3     1  UNL1       -0.0467
     12 C           2.1230    0.1610   -0.2580 C.3     1  UNL1       -0.0261
     13 C           3.1860    1.2310   -0.5230 C.3     1  UNL1        0.0622
     14 O           4.2790    1.0810    0.3850 O.3     1  UNL1       -0.3914
     15 C           2.6420    2.6590   -0.4020 C.3     1  UNL1        0.0359
     16 C           1.6810    2.8930    0.7530 C.2     1  UNL1        0.1582
     17 O           0.6050    3.4610    0.5770 O.2     1  UNL1       -0.2926
     18 C           2.1070    2.4680    2.1160 C.2     1  UNL1       -0.0229
     19 C           1.3120    1.8660    3.0160 C.2     1  UNL1       -0.0773
     20 C          -0.1550    1.5250    2.9030 C.3     1  UNL1        0.0027
     21 C          -0.5220    0.0210    2.9260 C.3     1  UNL1        0.1040
     22 C           0.2540   -0.7950    3.9550 C.3     1  UNL1       -0.0274
     23 O          -0.3190   -0.5490    1.6100 O.3     1  UNL1       -0.4578
     24 C          -1.1590   -1.5540    1.2680 C.2     1  UNL1        0.3433
     25 O          -2.0430   -2.0330    1.9670 O.2     1  UNL1       -0.2448
     26 H          -2.7490   -3.6370   -4.6920 H       1  UNL1        0.0660
     27 H          -2.5290   -1.8760   -5.0350 H       1  UNL1        0.0660
     28 H          -1.7610   -3.0990   -6.0550 H       1  UNL1        0.0660
     29 H          -3.1780   -2.3190   -2.7760 H       1  UNL1        0.0691
     30 H          -3.3870   -1.9090    0.6410 H       1  UNL1        0.2922
     31 H           1.0920   -2.7730   -2.6940 H       1  UNL1        0.0657
     32 H           1.4110   -2.2300    0.9970 H       1  UNL1        0.0313
     33 H           1.9340   -3.3060   -0.2620 H       1  UNL1        0.0313
     34 H           3.5110   -1.4860   -0.0550 H       1  UNL1        0.0269
     35 H           2.7580   -1.3710   -1.6410 H       1  UNL1        0.0269
     36 H           1.8720    0.1760    0.8030 H       1  UNL1        0.0290
     37 H           1.2200    0.3980   -0.8310 H       1  UNL1        0.0290
     38 H           3.5940    1.1100   -1.5340 H       1  UNL1        0.0597
     39 H           4.7710    0.2830    0.1270 H       1  UNL1        0.2098
     40 H           3.4580    3.3850   -0.3100 H       1  UNL1        0.0370
     41 H           2.0890    2.8940   -1.3200 H       1  UNL1        0.0370
     42 H           3.1630    2.6080    2.3290 H       1  UNL1        0.0649
     43 H           1.7730    1.5960    3.9650 H       1  UNL1        0.0574
     44 H          -0.6470    2.0050    3.7580 H       1  UNL1        0.0343
     45 H          -0.5980    1.9680    2.0060 H       1  UNL1        0.0343
     46 H          -1.5910   -0.0230    3.1730 H       1  UNL1        0.0734
     47 H          -0.1370   -1.8170    4.0080 H       1  UNL1        0.0265
     48 H           0.1800   -0.3510    4.9520 H       1  UNL1        0.0265
     49 H           1.3090   -0.8870    3.6780 H       1  UNL1        0.0265
@<TRIPOS>BOND
     1     1     2    1
     2     1    26    1
     3     1    27    1
     4     1    28    1
     5     2     3    1
     6     3     4   ar
     7     3     9   ar
     8     4     5   ar
     9     4    29    1
    10     5     6    1
    11     5     7   ar
    12     6    30    1
    13     7     8   ar
    14     7    24    1
    15     8     9   ar
    16     8    10    1
    17     9    31    1
    18    10    11    1
    19    10    32    1
    20    10    33    1
    21    11    12    1
    22    11    34    1
    23    11    35    1
    24    12    13    1
    25    12    36    1
    26    12    37    1
    27    13    14    1
    28    13    15    1
    29    13    38    1
    30    14    39    1
    31    15    16    1
    32    15    40    1
    33    15    41    1
    34    16    17    2
    35    16    18    1
    36    18    19    2
    37    18    42    1
    38    19    20    1
    39    19    43    1
    40    20    21    1
    41    20    44    1
    42    20    45    1
    43    21    22    1
    44    21    23    1
    45    21    46    1
    46    22    47    1
    47    22    48    1
    48    22    49    1
    49    23    24    1
    50    24    25    2
@<TRIPOS>MOLECULE
AD3CC00148202-I00-C00
 69 71 0 0 0
SMALL
GASTEIGER

@<TRIPOS>ATOM
      1 C          -2.5470   -3.6120   -3.4570 C.3     1  UNL1       -0.0130
      2 N          -2.9750   -3.7590   -2.0630 N.3     1  UNL1       -0.3069
      3 C          -4.4410   -3.7850   -2.0050 C.3     1  UNL1       -0.0130
      4 C          -2.4310   -4.9970   -1.4570 C.3     1  UNL1        0.0141
      5 C          -0.9220   -4.9430   -1.1340 C.3     1  UNL1        0.0275
      6 N          -0.5910   -4.0300   -0.0310 N.am    1  UNL1       -0.2987
      7 C          -0.4320   -2.6080   -0.3500 C.3     1  UNL1        0.0305
      8 C          -1.5500   -1.7160    0.2180 C.3     1  UNL1        0.0308
      9 N          -1.3530   -1.4180    1.6460 N.am    1  UNL1       -0.2955
     10 C          -0.5380   -0.3590    2.0720 C.2     1  UNL1        0.2490
     11 O           0.2130   -0.4730    3.0430 O.2     1  UNL1       -0.2699
     12 C          -0.5890    0.9040    1.3290 C.ar    1  UNL1        0.0657
     13 C          -1.7350    1.4840    0.6780 C.ar    1  UNL1       -0.0370
     14 C          -1.4690    2.6860    0.0450 C.ar    1  UNL1       -0.0023
     15 C          -2.4070    3.5850   -0.7710 C.3     1  UNL1       -0.0064
     16 C          -3.8150    2.9600   -0.8850 C.3     1  UNL1       -0.0556
     17 C          -2.5600    4.9600   -0.0910 C.3     1  UNL1       -0.0556
     18 C          -1.8650    3.7730   -2.2020 C.3     1  UNL1       -0.0556
     19 S           0.1720    3.1280    0.3040 S.2     1  UNL1       -0.0771
     20 C           0.4990    1.7560    1.2400 C.ar    1  UNL1        0.0853
     21 N           1.7220    1.5750    1.8660 N.am    1  UNL1       -0.2629
     22 C           2.8950    2.2810    1.6490 C.2     1  UNL1        0.3085
     23 O           3.0840    3.0950    0.7550 O.2     1  UNL1       -0.2521
     24 N           3.8460    1.9150    2.5910 N.am    1  UNL1       -0.2678
     25 C           5.1960    2.3360    2.6910 C.ar    1  UNL1        0.0546
     26 C           5.8250    3.1090    1.7080 C.ar    1  UNL1       -0.0389
     27 C           7.1600    3.4960    1.8490 C.ar    1  UNL1       -0.0585
     28 C           7.8870    3.1120    2.9730 C.ar    1  UNL1       -0.0419
     29 C           7.2820    2.3350    3.9610 C.ar    1  UNL1        0.0610
     30 CL          8.2470    1.8900    5.3260 Cl      1  UNL1       -0.0820
     31 C           5.9410    1.9430    3.8250 C.ar    1  UNL1        0.0804
     32 CL          5.1710    0.9690    5.0460 Cl      1  UNL1       -0.0801
     33 C          -1.4680   -2.5660    2.5450 C.3     1  UNL1        0.0233
     34 C          -0.3320   -3.5650    2.3900 C.3     1  UNL1        0.0399
     35 C          -0.6190   -4.5280    1.2620 C.2     1  UNL1        0.2171
     36 O          -0.8740   -5.7080    1.5100 O.2     1  UNL1       -0.2755
     37 H          -2.8660   -4.4560   -4.0800 H       1  UNL1        0.0391
     38 H          -2.9610   -2.6940   -3.8880 H       1  UNL1        0.0391
     39 H          -1.4600   -3.5190   -3.5330 H       1  UNL1        0.0391
     40 H          -4.7840   -3.8340   -0.9660 H       1  UNL1        0.0391
     41 H          -4.8590   -2.8640   -2.4270 H       1  UNL1        0.0391
     42 H          -4.8630   -4.6380   -2.5500 H       1  UNL1        0.0391
     43 H          -2.6260   -5.8550   -2.1140 H       1  UNL1        0.0442
     44 H          -2.9580   -5.1970   -0.5140 H       1  UNL1        0.0442
     45 H          -0.3190   -4.6740   -2.0080 H       1  UNL1        0.0477
     46 H          -0.6030   -5.9540   -0.8540 H       1  UNL1        0.0477
     47 H           0.5450   -2.2880    0.0310 H       1  UNL1        0.0480
     48 H          -0.3970   -2.4960   -1.4390 H       1  UNL1        0.0480
     49 H          -2.5360   -2.1780    0.1120 H       1  UNL1        0.0480
     50 H          -1.5540   -0.7970   -0.3680 H       1  UNL1        0.0480
     51 H          -2.7130    1.0170    0.6800 H       1  UNL1        0.0634
     52 H          -4.2770    2.8270    0.1000 H       1  UNL1        0.0238
     53 H          -3.7810    1.9800   -1.3760 H       1  UNL1        0.0238
     54 H          -4.4840    3.5980   -1.4750 H       1  UNL1        0.0238
     55 H          -2.9160    4.8560    0.9400 H       1  UNL1        0.0238
     56 H          -3.2770    5.5890   -0.6300 H       1  UNL1        0.0238
     57 H          -1.6120    5.5090   -0.0580 H       1  UNL1        0.0238
     58 H          -2.5630    4.3570   -2.8140 H       1  UNL1        0.0238
     59 H          -1.7140    2.8070   -2.6980 H       1  UNL1        0.0238
     60 H          -0.9070    4.3040   -2.2130 H       1  UNL1        0.0238
     61 H           1.7640    0.7730    2.4870 H       1  UNL1        0.1569
     62 H           3.5090    1.3790    3.3820 H       1  UNL1        0.1564
     63 H           5.3020    3.4270    0.8100 H       1  UNL1        0.0637
     64 H           7.6300    4.1000    1.0750 H       1  UNL1        0.0619
     65 H           8.9260    3.4210    3.0700 H       1  UNL1        0.0633
     66 H          -2.4450   -3.0340    2.3680 H       1  UNL1        0.0469
     67 H          -1.4770   -2.1910    3.5750 H       1  UNL1        0.0469
     68 H           0.6430   -3.0900    2.2360 H       1  UNL1        0.0374
     69 H          -0.2530   -4.1600    3.3080 H       1  UNL1        0.0374
@<TRIPOS>BOND
     1     1     2    1
     2     1    37    1
     3     1    38    1
     4     1    39    1
     5     2     3    1
     6     2     4    1
     7     3    40    1
     8     3    41    1
     9     3    42    1
    10     4     5    1
    11     4    43    1
    12     4    44    1
    13     5     6    1
    14     5    45    1
    15     5    46    1
    16     6     7    1
    17     6    35   am
    18     7     8    1
    19     7    47    1
    20     7    48    1
    21     8     9    1
    22     8    49    1
    23     8    50    1
    24     9    10   am
    25     9    33    1
    26    10    11    2
    27    10    12    1
    28    12    13   ar
    29    12    20   ar
    30    13    14   ar
    31    13    51    1
    32    14    15    1
    33    14    19   ar
    34    15    16    1
    35    15    17    1
    36    15    18    1
    37    16    52    1
    38    16    53    1
    39    16    54    1
    40    17    55    1
    41    17    56    1
    42    17    57    1
    43    18    58    1
    44    18    59    1
    45    18    60    1
    46    19    20   ar
    47    20    21    1
    48    21    22   am
    49    21    61    1
    50    22    23    2
    51    22    24   am
    52    24    25    1
    53    24    62    1
    54    25    26   ar
    55    25    31   ar
    56    26    27   ar
    57    26    63    1
    58    27    28   ar
    59    27    64    1
    60    28    29   ar
    61    28    65    1
    62    29    30    1
    63    29    31   ar
    64    31    32    1
    65    33    34    1
    66    33    66    1
    67    33    67    1
    68    34    35    1
    69    34    68    1
    70    34    69    1
    71    35    36    2
@<TRIPOS>MOLECULE
AD3CC00151415-I00-C00
 48 52 0 0 0
SMALL
GASTEIGER

@<TRIPOS>ATOM
      1 C           3.7420    3.1870    0.3370 C.3     1  UNL1       -0.0223
      2 C           3.1810    2.2210   -0.6630 C.ar    1  UNL1        0.0390
      3 C           3.7380    2.1310   -1.9340 C.ar    1  UNL1       -0.0406
      4 C           3.1900    1.2300   -2.8420 C.ar    1  UNL1       -0.0580
      5 C           2.1120    0.4410   -2.4550 C.ar    1  UNL1       -0.0342
      6 C           1.6250    0.5730   -1.1630 C.ar    1  UNL1        0.0895
      7 C           0.4960   -0.1850   -0.6490 C.ar    1  UNL1        0.0926
      8 N          -0.3040    0.3340    0.3470 N.ar    1  UNL1       -0.3389
      9 C          -1.3340   -0.5350    0.5890 C.ar    1  UNL1        0.1254
     10 C          -2.3940   -0.2260    1.6000 C.3     1  UNL1        0.0672
     11 N          -2.9520    1.1200    1.4470 N.pl3   1  UNL1       -0.3359
     12 C          -4.0290    1.4930    2.2770 C.ar    1  UNL1        0.0416
     13 C          -4.1130    1.0890    3.6170 C.ar    1  UNL1       -0.0398
     14 C          -5.1510    1.5310    4.4460 C.ar    1  UNL1       -0.0600
     15 C          -6.1140    2.4100    3.9590 C.ar    1  UNL1       -0.0606
     16 C          -6.0340    2.8590    2.6440 C.ar    1  UNL1       -0.0460
     17 C          -4.9950    2.4150    1.8190 C.ar    1  UNL1        0.0387
     18 BR         -4.9440    3.0760    0.0330 Br      1  UNL1       -0.0484
     19 N          -1.2230   -1.6070   -0.1680 N.ar    1  UNL1       -0.2302
     20 C          -0.0740   -1.4210   -0.9040 C.ar    1  UNL1        0.0998
     21 C           0.3670   -2.4670   -1.7750 C.ar    1  UNL1        0.0208
     22 C          -0.6100   -3.1860   -2.6070 C.ar    1  UNL1       -0.0475
     23 C          -0.2590   -4.1850   -3.4380 C.ar    1  UNL1       -0.0167
     24 C           1.1020   -4.5780   -3.5190 C.ar    1  UNL1        0.1557
     25 N           1.7160   -5.4930   -4.2350 N.ar    1  UNL1       -0.2149
     26 C           3.0120   -5.3650   -3.8370 C.ar    1  UNL1        0.1390
     27 N           3.2540   -4.4240   -2.9230 N.ar    1  UNL1       -0.1535
     28 N           2.0180   -3.9080   -2.7060 N.ar    1  UNL1       -0.2198
     29 C           1.6510   -2.8760   -1.8480 C.ar    1  UNL1        0.0407
     30 N           2.1290    1.4610   -0.2710 N.ar    1  UNL1       -0.2503
     31 H           3.6660    4.2100   -0.0430 H       1  UNL1        0.0292
     32 H           3.1920    3.1320    1.2820 H       1  UNL1        0.0292
     33 H           4.7920    2.9540    0.5390 H       1  UNL1        0.0292
     34 H           4.5800    2.7530   -2.2190 H       1  UNL1        0.0635
     35 H           3.5970    1.1470   -3.8460 H       1  UNL1        0.0619
     36 H           1.6630   -0.2440   -3.1660 H       1  UNL1        0.0639
     37 H          -0.1650    1.2340    0.7890 H       1  UNL1        0.1672
     38 H          -3.1940   -0.9710    1.5060 H       1  UNL1        0.0541
     39 H          -1.9380   -0.3420    2.5900 H       1  UNL1        0.0541
     40 H          -3.2130    1.2880    0.4720 H       1  UNL1        0.1465
     41 H          -3.3660    0.4340    4.0540 H       1  UNL1        0.0636
     42 H          -5.1970    1.1950    5.4790 H       1  UNL1        0.0618
     43 H          -6.9170    2.7540    4.6050 H       1  UNL1        0.0618
     44 H          -6.7790    3.5570    2.2710 H       1  UNL1        0.0629
     45 H          -1.6520   -2.8850   -2.5220 H       1  UNL1        0.0626
     46 H          -0.9920   -4.7070   -4.0420 H       1  UNL1        0.0655
     47 H           3.8130   -5.9800   -4.2290 H       1  UNL1        0.1066
     48 H           2.4560   -2.4500   -1.2630 H       1  UNL1        0.0837
@<TRIPOS>BOND
     1     1     2    1
     2     1    31    1
     3     1    32    1
     4     1    33    1
     5     2     3   ar
     6     2    30   ar
     7     3     4   ar
     8     3    34    1
     9     4     5   ar
    10     4    35    1
    11     5     6   ar
    12     5    36    1
    13     6     7    1
    14     6    30   ar
    15     7     8   ar
    16     7    20   ar
    17     8     9   ar
    18     8    37    1
    19     9    10    1
    20     9    19   ar
    21    10    11    1
    22    10    38    1
    23    10    39    1
    24    11    12    1
    25    11    40    1
    26    12    13   ar
    27    12    17   ar
    28    13    14   ar
    29    13    41    1
    30    14    15   ar
    31    14    42    1
    32    15    16   ar
    33    15    43    1
    34    16    17   ar
    35    16    44    1
    36    17    18    1
    37    19    20   ar
    38    20    21    1
    39    21    22   ar
    40    21    29   ar
    41    22    23   ar
    42    22    45    1
    43    23    24   ar
    44    23    46    1
    45    24    25   ar
    46    24    28   ar
    47    25    26   ar
    48    26    27   ar
    49    26    47    1
    50    27    28   ar
    51    28    29   ar
    52    29    48    1
@<TRIPOS>MOLECULE
AD3CC00151446-I00-C00
 79 84 0 0 0
SMALL
GASTEIGER

@<TRIPOS>ATOM
      1 C          -4.1600   -1.2860   -6.6210 C.3     1  UNL1        0.0055
      2 N          -3.4610   -0.4130   -7.5680 N.3     1  UNL1       -0.1973
      3 S          -1.7800   -0.4190   -7.5480 S.O2    1  UNL1        0.0332
      4 O          -1.3250   -1.6100   -6.8640 O.2     1  UNL1       -0.1579
      5 O          -1.4000   -0.1690   -8.9240 O.2     1  UNL1       -0.1579
      6 C          -1.3480    1.0530   -6.6040 C.3     1  UNL1        0.1067
      7 C          -1.9070    1.0040   -5.2060 C.ar    1  UNL1       -0.0249
      8 C          -3.0550    1.7370   -4.8780 C.ar    1  UNL1       -0.0550
      9 C          -3.5870    1.6840   -3.5870 C.ar    1  UNL1       -0.0359
     10 C          -2.9640    0.9160   -2.5920 C.ar    1  UNL1        0.0674
     11 N          -3.5380    0.8740   -1.2880 N.ar    1  UNL1       -0.2181
     12 N          -4.8510    1.1880   -1.1310 N.ar    1  UNL1       -0.1691
     13 C          -5.1600    0.8020    0.1110 C.ar    1  UNL1        0.0706
     14 C          -6.5800    0.9100    0.6460 C.3     1  UNL1        0.0063
     15 C          -6.9930   -0.4080    1.3340 C.3     1  UNL1       -0.0546
     16 C          -6.6630    2.0560    1.6720 C.3     1  UNL1       -0.0546
     17 C          -7.6030    1.1920   -0.4770 C.3     1  UNL1       -0.0546
     18 C          -4.0060    0.3760    0.8080 C.ar    1  UNL1        0.0021
     19 C          -2.9520    0.5300   -0.0680 C.ar    1  UNL1        0.1299
     20 N          -1.5810    0.4520    0.1530 N.am    1  UNL1       -0.2538
     21 C          -1.0200   -0.0270    1.3320 C.2     1  UNL1        0.3092
     22 O          -1.6510   -0.5600    2.2340 O.2     1  UNL1       -0.2521
     23 N           0.3540    0.1830    1.3220 N.am    1  UNL1       -0.2686
     24 C           1.3150   -0.2760    2.2640 C.ar    1  UNL1        0.0427
     25 C           0.9790   -1.2520    3.2110 C.ar    1  UNL1       -0.0364
     26 C           1.9190   -1.7190    4.1230 C.ar    1  UNL1       -0.0170
     27 C           3.2230   -1.2330    4.0850 C.ar    1  UNL1        0.1363
     28 O           4.1460   -1.6890    5.0090 O.3     1  UNL1       -0.4531
     29 C           4.3980   -3.0470    4.9970 C.ar    1  UNL1        0.1587
     30 C           4.7760   -3.7000    3.8220 C.ar    1  UNL1        0.0011
     31 C           5.0500   -5.0550    3.8890 C.ar    1  UNL1        0.0335
     32 N           4.9830   -5.7810    5.0270 N.ar    1  UNL1       -0.2357
     33 C           4.6330   -5.1130    6.1460 C.ar    1  UNL1        0.1629
     34 N           4.5690   -5.8630    7.3160 N.ar    1  UNL1       -0.3044
     35 C           4.2230   -5.3060    8.5140 C.ar    1  UNL1        0.2684
     36 O           4.1460   -5.9140    9.5710 O.2     1  UNL1       -0.2662
     37 C           3.9210   -3.8240    8.4840 C.ar    1  UNL1        0.0928
     38 N           3.9720   -3.0950    7.4110 N.ar    1  UNL1       -0.2428
     39 C           4.3350   -3.7450    6.2060 C.ar    1  UNL1        0.1483
     40 C           3.6060   -0.2390    3.1620 C.ar    1  UNL1        0.0262
     41 C           4.9230    0.2740    3.1520 C.ar    1  UNL1       -0.0505
     42 C           5.3230    1.2440    2.2380 C.ar    1  UNL1       -0.0611
     43 C           4.4130    1.7240    1.3130 C.ar    1  UNL1       -0.0611
     44 C           3.1030    1.2360    1.3070 C.ar    1  UNL1       -0.0521
     45 C           2.6520    0.2470    2.2240 C.ar    1  UNL1        0.0069
     46 C          -1.8300    0.1640   -2.9210 C.ar    1  UNL1       -0.0359
     47 C          -1.3010    0.2190   -4.2150 C.ar    1  UNL1       -0.0550
     48 H          -4.1090   -2.3250   -6.9590 H       1  UNL1        0.0405
     49 H          -5.2140   -0.9940   -6.5870 H       1  UNL1        0.0405
     50 H          -3.7560   -1.2050   -5.6100 H       1  UNL1        0.0405
     51 H          -3.8110   -0.4360   -8.5270 H       1  UNL1        0.1473
     52 H          -1.7170    1.9210   -7.1600 H       1  UNL1        0.0565
     53 H          -0.2540    1.1130   -6.5800 H       1  UNL1        0.0565
     54 H          -3.5590    2.3450   -5.6270 H       1  UNL1        0.0621
     55 H          -4.4860    2.2590   -3.3660 H       1  UNL1        0.0639
     56 H          -8.0250   -0.3570    1.7000 H       1  UNL1        0.0239
     57 H          -6.3540   -0.6350    2.1940 H       1  UNL1        0.0239
     58 H          -6.9240   -1.2540    0.6400 H       1  UNL1        0.0239
     59 H          -5.9920    1.8850    2.5220 H       1  UNL1        0.0239
     60 H          -7.6790    2.1610    2.0690 H       1  UNL1        0.0239
     61 H          -6.3790    3.0140    1.2200 H       1  UNL1        0.0239
     62 H          -8.6230    1.2450   -0.0790 H       1  UNL1        0.0239
     63 H          -7.5850    0.4050   -1.2400 H       1  UNL1        0.0239
     64 H          -7.3980    2.1450   -0.9790 H       1  UNL1        0.0239
     65 H          -3.9490    0.0800    1.8470 H       1  UNL1        0.0671
     66 H          -0.9600    0.7450   -0.5850 H       1  UNL1        0.1578
     67 H           0.6650    0.8780    0.6690 H       1  UNL1        0.1564
     68 H          -0.0170   -1.6810    3.2650 H       1  UNL1        0.0637
     69 H           1.6240   -2.4580    4.8640 H       1  UNL1        0.0655
     70 H           4.8620   -3.1700    2.8800 H       1  UNL1        0.0670
     71 H           5.3430   -5.6100    3.0010 H       1  UNL1        0.0831
     72 H           4.7820   -6.8470    7.2590 H       1  UNL1        0.1704
     73 H           3.6470   -3.3860    9.4560 H       1  UNL1        0.0885
     74 H           5.6560   -0.0820    3.8750 H       1  UNL1        0.0625
     75 H           6.3420    1.6230    2.2570 H       1  UNL1        0.0618
     76 H           4.7150    2.4830    0.5960 H       1  UNL1        0.0618
     77 H           2.4400    1.6640    0.5620 H       1  UNL1        0.0624
     78 H          -1.3770   -0.5340   -2.2230 H       1  UNL1        0.0639
     79 H          -0.4300   -0.3920   -4.4560 H       1  UNL1        0.0621
@<TRIPOS>BOND
     1     1     2    1
     2     1    48    1
     3     1    49    1
     4     1    50    1
     5     3     2    1
     6     2    51    1
     7     3     4    2
     8     3     5    2
     9     3     6    1
    10     6     7    1
    11     6    52    1
    12     6    53    1
    13     7     8   ar
    14     7    47   ar
    15     8     9   ar
    16     8    54    1
    17     9    10   ar
    18     9    55    1
    19    10    11    1
    20    10    46   ar
    21    11    12   ar
    22    11    19   ar
    23    12    13   ar
    24    13    14    1
    25    13    18   ar
    26    14    15    1
    27    14    16    1
    28    14    17    1
    29    15    56    1
    30    15    57    1
    31    15    58    1
    32    16    59    1
    33    16    60    1
    34    16    61    1
    35    17    62    1
    36    17    63    1
    37    17    64    1
    38    18    19   ar
    39    18    65    1
    40    19    20    1
    41    20    21   am
    42    20    66    1
    43    21    22    2
    44    21    23   am
    45    23    24    1
    46    23    67    1
    47    24    25   ar
    48    24    45   ar
    49    25    26   ar
    50    25    68    1
    51    26    27   ar
    52    26    69    1
    53    27    28    1
    54    27    40   ar
    55    28    29    1
    56    29    30   ar
    57    29    39   ar
    58    30    31   ar
    59    30    70    1
    60    31    32   ar
    61    31    71    1
    62    32    33   ar
    63    33    34   ar
    64    33    39   ar
    65    34    35   ar
    66    34    72    1
    67    35    36    2
    68    35    37   ar
    69    37    38   ar
    70    37    73    1
    71    38    39   ar
    72    40    41   ar
    73    40    45   ar
    74    41    42   ar
    75    41    74    1
    76    42    43   ar
    77    42    75    1
    78    43    44   ar
    79    43    76    1
    80    44    45   ar
    81    44    77    1
    82    46    47   ar
    83    46    78    1
    84    47    79    1
@<TRIPOS>MOLECULE
AD3CC00151472-I00-C00
 52 56 0 0 0
SMALL
GASTEIGER

@<TRIPOS>ATOM
      1 C           0.0340   -1.6630   -2.5480 C.3     1  UNL1       -0.0135
      2 S           1.2730   -1.4860   -3.8650 S.3     1  UNL1       -0.1285
      3 C           1.4360    0.2920   -3.8950 C.ar    1  UNL1        0.0094
      4 C           1.2410    0.9710   -5.0970 C.ar    1  UNL1       -0.0482
      5 C           1.3200    2.3600   -5.1310 C.ar    1  UNL1       -0.0590
      6 C           1.6020    3.0710   -3.9610 C.ar    1  UNL1       -0.0408
      7 C           1.8520    2.4140   -2.7480 C.ar    1  UNL1        0.0285
      8 N           2.0240    3.1960   -1.6000 N.pl3   1  UNL1       -0.3367
      9 C           2.5210    2.6140   -0.3460 C.3     1  UNL1        0.0672
     10 C           1.5110    1.8900    0.4910 C.ar    1  UNL1        0.1254
     11 N           1.7130    1.2560    1.6280 N.ar    1  UNL1       -0.2302
     12 C           0.5060    0.6710    1.9430 C.ar    1  UNL1        0.0998
     13 C           0.4290   -0.1840    3.0880 C.ar    1  UNL1        0.0208
     14 C           1.1010    0.2060    4.3370 C.ar    1  UNL1       -0.0475
     15 C           1.0730   -0.5570    5.4460 C.ar    1  UNL1       -0.0167
     16 C           0.3790   -1.7950    5.4230 C.ar    1  UNL1        0.1557
     17 N           0.1830   -2.7150    6.3390 N.ar    1  UNL1       -0.2149
     18 C          -0.5520   -3.6490    5.6730 C.ar    1  UNL1        0.1390
     19 N          -0.8370   -3.3710    4.4010 N.ar    1  UNL1       -0.1535
     20 N          -0.2340   -2.1690    4.2250 N.ar    1  UNL1       -0.2198
     21 C          -0.2020   -1.3770    3.0810 C.ar    1  UNL1        0.0407
     22 C          -0.4720    0.9990    1.0200 C.ar    1  UNL1        0.0926
     23 C          -1.8820    0.7020    0.8470 C.ar    1  UNL1        0.0895
     24 C          -2.7630    0.5310    1.9040 C.ar    1  UNL1       -0.0342
     25 C          -4.0950    0.2530    1.6160 C.ar    1  UNL1       -0.0580
     26 C          -4.5040    0.1640    0.2900 C.ar    1  UNL1       -0.0406
     27 C          -3.5640    0.3650   -0.7150 C.ar    1  UNL1        0.0390
     28 C          -3.9710    0.2820   -2.1560 C.3     1  UNL1       -0.0223
     29 N          -2.2630    0.6370   -0.4530 N.ar    1  UNL1       -0.2503
     30 N           0.2000    1.7830    0.1100 N.ar    1  UNL1       -0.3389
     31 C           1.7560    1.0160   -2.7370 C.ar    1  UNL1       -0.0274
     32 H          -0.2780   -2.7090   -2.4940 H       1  UNL1        0.0344
     33 H           0.4490   -1.3790   -1.5780 H       1  UNL1        0.0344
     34 H          -0.8450   -1.0490   -2.7640 H       1  UNL1        0.0344
     35 H           1.0080    0.4260   -6.0090 H       1  UNL1        0.0629
     36 H           1.1450    2.8930   -6.0620 H       1  UNL1        0.0618
     37 H           1.6200    4.1580   -4.0060 H       1  UNL1        0.0636
     38 H           2.4950    4.0710   -1.8190 H       1  UNL1        0.1465
     39 H           2.9040    3.4400    0.2650 H       1  UNL1        0.0541
     40 H           3.3810    1.9610   -0.5420 H       1  UNL1        0.0541
     41 H           1.6440    1.1490    4.3360 H       1  UNL1        0.0626
     42 H           1.5780   -0.2570    6.3570 H       1  UNL1        0.0655
     43 H          -0.8940   -4.5670    6.1340 H       1  UNL1        0.1066
     44 H          -0.7050   -1.7920    2.2170 H       1  UNL1        0.0837
     45 H          -2.4390    0.6250    2.9340 H       1  UNL1        0.0639
     46 H          -4.8110    0.1090    2.4210 H       1  UNL1        0.0619
     47 H          -5.5390   -0.0540    0.0480 H       1  UNL1        0.0635
     48 H          -4.3410   -0.7210   -2.3860 H       1  UNL1        0.0292
     49 H          -4.7550    1.0150   -2.3710 H       1  UNL1        0.0292
     50 H          -3.1200    0.4910   -2.8130 H       1  UNL1        0.0292
     51 H          -0.1940    2.1650   -0.7420 H       1  UNL1        0.1672
     52 H           1.9320    0.4600   -1.8220 H       1  UNL1        0.0647
@<TRIPOS>BOND
     1     1     2    1
     2     1    32    1
     3     1    33    1
     4     1    34    1
     5     2     3    1
     6     3     4   ar
     7     3    31   ar
     8     4     5   ar
     9     4    35    1
    10     5     6   ar
    11     5    36    1
    12     6     7   ar
    13     6    37    1
    14     7     8    1
    15     7    31   ar
    16     8     9    1
    17     8    38    1
    18     9    10    1
    19     9    39    1
    20     9    40    1
    21    10    11   ar
    22    10    30   ar
    23    11    12   ar
    24    12    13    1
    25    12    22   ar
    26    13    14   ar
    27    13    21   ar
    28    14    15   ar
    29    14    41    1
    30    15    16   ar
    31    15    42    1
    32    16    17   ar
    33    16    20   ar
    34    17    18   ar
    35    18    19   ar
    36    18    43    1
    37    19    20   ar
    38    20    21   ar
    39    21    44    1
    40    22    23    1
    41    22    30   ar
    42    23    24   ar
    43    23    29   ar
    44    24    25   ar
    45    24    45    1
    46    25    26   ar
    47    25    46    1
    48    26    27   ar
    49    26    47    1
    50    27    28    1
    51    27    29   ar
    52    28    48    1
    53    28    49    1
    54    28    50    1
    55    30    51    1
    56    31    52    1
@<TRIPOS>MOLECULE
AD3CC00151486-I00-C00
 54 58 0 0 0
SMALL
GASTEIGER

@<TRIPOS>ATOM
      1 C          -6.0970    2.8170   -4.9390 C.3     1  UNL1        0.0820
      2 O          -4.9350    3.0490   -4.1410 O.3     1  UNL1       -0.4644
      3 C          -4.5870    4.3560   -4.0420 C.2     1  UNL1        0.3390
      4 O          -5.1720    5.2920   -4.5660 O.2     1  UNL1       -0.2450
      5 C          -3.3710    4.5180   -3.2000 C.ar    1  UNL1        0.0607
      6 C          -2.8580    5.8060   -3.0230 C.ar    1  UNL1       -0.0477
      7 C          -1.7350    6.0020   -2.2240 C.ar    1  UNL1       -0.0592
      8 C          -1.1120    4.9110   -1.6090 C.ar    1  UNL1       -0.0408
      9 C          -1.5770    3.6050   -1.8030 C.ar    1  UNL1        0.0282
     10 N          -1.0430    2.4840   -1.1550 N.pl3   1  UNL1       -0.3367
     11 C           0.3330    2.5250   -0.6530 C.3     1  UNL1        0.0672
     12 C           0.7620    1.2390   -0.0200 C.ar    1  UNL1        0.1254
     13 N           1.8500    0.5380   -0.2640 N.ar    1  UNL1       -0.2302
     14 C           1.7660   -0.5700    0.5490 C.ar    1  UNL1        0.0998
     15 C           2.7760   -1.5790    0.4490 C.ar    1  UNL1        0.0208
     16 C           4.1910   -1.1890    0.3460 C.ar    1  UNL1       -0.0475
     17 C           5.1850   -2.0900    0.2400 C.ar    1  UNL1       -0.0167
     18 C           4.8730   -3.4740    0.2170 C.ar    1  UNL1        0.1557
     19 N           5.6240   -4.5480    0.1350 N.ar    1  UNL1       -0.2149
     20 C           4.7080   -5.5560    0.1520 C.ar    1  UNL1        0.1390
     21 N           3.4310   -5.1850    0.2490 N.ar    1  UNL1       -0.1535
     22 N           3.5250   -3.8330    0.2880 N.ar    1  UNL1       -0.2198
     23 C           2.5000   -2.8990    0.3970 C.ar    1  UNL1        0.0407
     24 C           0.6410   -0.5220    1.3560 C.ar    1  UNL1        0.0926
     25 C           0.0800   -1.3390    2.4190 C.ar    1  UNL1        0.0895
     26 C           0.8450   -2.1270    3.2670 C.ar    1  UNL1       -0.0342
     27 C           0.1980   -2.8560    4.2590 C.ar    1  UNL1       -0.0580
     28 C          -1.1850   -2.7680    4.3790 C.ar    1  UNL1       -0.0406
     29 C          -1.8810   -1.9390    3.5050 C.ar    1  UNL1        0.0390
     30 C          -3.3710   -1.8150    3.6130 C.3     1  UNL1       -0.0223
     31 N          -1.2650   -1.2200    2.5370 N.ar    1  UNL1       -0.2503
     32 N          -0.0040    0.6190    0.9310 N.ar    1  UNL1       -0.3389
     33 C          -2.7350    3.4310   -2.5780 C.ar    1  UNL1       -0.0269
     34 H          -5.9280    3.1520   -5.9680 H       1  UNL1        0.0661
     35 H          -6.9670    3.3190   -4.5060 H       1  UNL1        0.0661
     36 H          -6.2890    1.7410   -4.9530 H       1  UNL1        0.0661
     37 H          -3.3390    6.6610   -3.4950 H       1  UNL1        0.0626
     38 H          -1.3470    7.0060   -2.0700 H       1  UNL1        0.0618
     39 H          -0.2540    5.1160   -0.9760 H       1  UNL1        0.0636
     40 H          -1.1970    1.6390   -1.7050 H       1  UNL1        0.1465
     41 H           1.0200    2.7570   -1.4760 H       1  UNL1        0.0541
     42 H           0.4360    3.3090    0.1070 H       1  UNL1        0.0541
     43 H           4.4150   -0.1240    0.3480 H       1  UNL1        0.0626
     44 H           6.2230   -1.7860    0.1610 H       1  UNL1        0.0655
     45 H           4.9830   -6.6020    0.0950 H       1  UNL1        0.1066
     46 H           1.4990   -3.3090    0.4300 H       1  UNL1        0.0837
     47 H           1.9250   -2.1710    3.1840 H       1  UNL1        0.0639
     48 H           0.7680   -3.4860    4.9350 H       1  UNL1        0.0619
     49 H          -1.7060   -3.3320    5.1470 H       1  UNL1        0.0635
     50 H          -3.6480   -1.4280    4.5990 H       1  UNL1        0.0292
     51 H          -3.7600   -1.1280    2.8550 H       1  UNL1        0.0292
     52 H          -3.8430   -2.7910    3.4630 H       1  UNL1        0.0292
     53 H          -0.9050    0.9330    1.2710 H       1  UNL1        0.1672
     54 H          -3.1460    2.4300   -2.6930 H       1  UNL1        0.0644
@<TRIPOS>BOND
     1     1     2    1
     2     1    34    1
     3     1    35    1
     4     1    36    1
     5     2     3    1
     6     3     4    2
     7     3     5    1
     8     5     6   ar
     9     5    33   ar
    10     6     7   ar
    11     6    37    1
    12     7     8   ar
    13     7    38    1
    14     8     9   ar
    15     8    39    1
    16     9    10    1
    17     9    33   ar
    18    10    11    1
    19    10    40    1
    20    11    12    1
    21    11    41    1
    22    11    42    1
    23    12    13   ar
    24    12    32   ar
    25    13    14   ar
    26    14    15    1
    27    14    24   ar
    28    15    16   ar
    29    15    23   ar
    30    16    17   ar
    31    16    43    1
    32    17    18   ar
    33    17    44    1
    34    18    19   ar
    35    18    22   ar
    36    19    20   ar
    37    20    21   ar
    38    20    45    1
    39    21    22   ar
    40    22    23   ar
    41    23    46    1
    42    24    25    1
    43    24    32   ar
    44    25    26   ar
    45    25    31   ar
    46    26    27   ar
    47    26    47    1
    48    27    28   ar
    49    27    48    1
    50    28    29   ar
    51    28    49    1
    52    29    30    1
    53    29    31   ar
    54    30    50    1
    55    30    51    1
    56    30    52    1
    57    32    53    1
    58    33    54    1
@<TRIPOS>MOLECULE
AD3CC00151516-I00-C01
 59 63 0 0 0
SMALL
GASTEIGER

@<TRIPOS>ATOM
      1 C           2.2120   -4.6070   -2.4710 C.3     1  UNL1       -0.0223
      2 C           0.7600   -4.2620   -2.3290 C.ar    1  UNL1        0.0390
      3 C          -0.1670   -4.7520   -3.2420 C.ar    1  UNL1       -0.0406
      4 C          -1.5050   -4.4070   -3.0880 C.ar    1  UNL1       -0.0580
      5 C          -1.8820   -3.5920   -2.0260 C.ar    1  UNL1       -0.0342
      6 C          -0.9020   -3.1560   -1.1460 C.ar    1  UNL1        0.0895
      7 C          -1.1710   -2.2880   -0.0120 C.ar    1  UNL1        0.0926
      8 N          -0.2000   -1.4390    0.4730 N.ar    1  UNL1       -0.3389
      9 C          -0.7340   -0.6790    1.4800 C.ar    1  UNL1        0.1254
     10 C           0.0750    0.3650    2.1840 C.3     1  UNL1        0.0673
     11 N           0.8170    1.2310    1.2620 N.pl3   1  UNL1       -0.3345
     12 C           1.5570    2.2950    1.8170 C.ar    1  UNL1        0.0635
     13 C           2.2690    2.1900    3.0160 C.ar    1  UNL1       -0.0380
     14 C           3.0430    3.2560    3.4860 C.ar    1  UNL1       -0.0595
     15 C           3.1410    4.4360    2.7490 C.ar    1  UNL1       -0.0545
     16 C           2.4820    4.5590    1.5190 C.ar    1  UNL1        0.0036
     17 C           2.5690    5.8310    0.7100 C.3     1  UNL1        0.0262
     18 N           3.9530    6.3010    0.4960 N.3     1  UNL1       -0.3041
     19 C           4.6740    5.4170   -0.4260 C.3     1  UNL1       -0.0127
     20 C           3.9380    7.6640   -0.0390 C.3     1  UNL1       -0.0127
     21 C           1.7050    3.4840    1.0740 C.ar    1  UNL1        0.1485
     22 F           1.0510    3.5880   -0.0970 F       1  UNL1       -0.2032
     23 N          -1.9880   -1.0170    1.6990 N.ar    1  UNL1       -0.2302
     24 C          -2.2550   -2.0350    0.8120 C.ar    1  UNL1        0.0998
     25 C          -3.5330   -2.6760    0.8550 C.ar    1  UNL1        0.0208
     26 C          -3.6530   -4.1410    0.8540 C.ar    1  UNL1       -0.0475
     27 C          -4.8440   -4.7670    0.9010 C.ar    1  UNL1       -0.0167
     28 C          -6.0360   -3.9980    0.9650 C.ar    1  UNL1        0.1557
     29 N          -7.3040   -4.3400    1.0070 N.ar    1  UNL1       -0.2149
     30 C          -7.9350   -3.1340    1.0710 C.ar    1  UNL1        0.1390
     31 N          -7.1470   -2.0590    1.0640 N.ar    1  UNL1       -0.1535
     32 N          -5.9080   -2.6080    0.9970 N.ar    1  UNL1       -0.2198
     33 C          -4.6760   -1.9650    0.9470 C.ar    1  UNL1        0.0407
     34 N           0.4100   -3.4650   -1.2910 N.ar    1  UNL1       -0.2503
     35 H           2.8020   -4.1450   -1.6730 H       1  UNL1        0.0292
     36 H           2.3500   -5.6920   -2.4130 H       1  UNL1        0.0292
     37 H           2.5940   -4.2460   -3.4310 H       1  UNL1        0.0292
     38 H           0.1450   -5.3870   -4.0660 H       1  UNL1        0.0635
     39 H          -2.2490   -4.7650   -3.7950 H       1  UNL1        0.0619
     40 H          -2.9190   -3.2960   -1.9150 H       1  UNL1        0.0639
     41 H           0.7410   -1.3670    0.1080 H       1  UNL1        0.1672
     42 H          -0.5980    0.9730    2.8000 H       1  UNL1        0.0541
     43 H           0.7640   -0.1610    2.8550 H       1  UNL1        0.0541
     44 H           0.1940    1.6070    0.5430 H       1  UNL1        0.1466
     45 H           2.2500    1.2770    3.6040 H       1  UNL1        0.0637
     46 H           3.5820    3.1610    4.4250 H       1  UNL1        0.0618
     47 H           3.7510    5.2570    3.1220 H       1  UNL1        0.0622
     48 H           2.0540    5.7190   -0.2530 H       1  UNL1        0.0476
     49 H           2.0060    6.5870    1.2740 H       1  UNL1        0.0476
     50 H           4.1870    5.3550   -1.4060 H       1  UNL1        0.0391
     51 H           4.7610    4.4040   -0.0190 H       1  UNL1        0.0391
     52 H           5.6990    5.7760   -0.5740 H       1  UNL1        0.0391
     53 H           3.4480    8.3480    0.6630 H       1  UNL1        0.0391
     54 H           4.9610    8.0360   -0.1720 H       1  UNL1        0.0391
     55 H           3.4200    7.7270   -1.0020 H       1  UNL1        0.0391
     56 H          -2.7360   -4.7270    0.8360 H       1  UNL1        0.0626
     57 H          -4.9200   -5.8480    0.9080 H       1  UNL1        0.0655
     58 H          -9.0120   -3.0360    1.1230 H       1  UNL1        0.1066
     59 H          -4.7040   -0.8830    0.9840 H       1  UNL1        0.0837
@<TRIPOS>BOND
     1     1     2    1
     2     1    35    1
     3     1    36    1
     4     1    37    1
     5     2     3   ar
     6     2    34   ar
     7     3     4   ar
     8     3    38    1
     9     4     5   ar
    10     4    39    1
    11     5     6   ar
    12     5    40    1
    13     6     7    1
    14     6    34   ar
    15     7     8   ar
    16     7    24   ar
    17     8     9   ar
    18     8    41    1
    19     9    10    1
    20     9    23   ar
    21    10    11    1
    22    10    42    1
    23    10    43    1
    24    11    12    1
    25    11    44    1
    26    12    13   ar
    27    12    21   ar
    28    13    14   ar
    29    13    45    1
    30    14    15   ar
    31    14    46    1
    32    15    16   ar
    33    15    47    1
    34    16    17    1
    35    16    21   ar
    36    17    18    1
    37    17    48    1
    38    17    49    1
    39    18    19    1
    40    18    20    1
    41    19    50    1
    42    19    51    1
    43    19    52    1
    44    20    53    1
    45    20    54    1
    46    20    55    1
    47    21    22    1
    48    23    24   ar
    49    24    25    1
    50    25    26   ar
    51    25    33   ar
    52    26    27   ar
    53    26    56    1
    54    27    28   ar
    55    27    57    1
    56    28    29   ar
    57    28    32   ar
    58    29    30   ar
    59    30    31   ar
    60    30    58    1
    61    31    32   ar
    62    32    33   ar
    63    33    59    1
@<TRIPOS>MOLECULE
AD3CC00152124-I00-C00
 64 68 0 0 0
SMALL
GASTEIGER

@<TRIPOS>ATOM
      1 C          -2.2970    9.3020   -2.8530 C.3     1  UNL1        0.0790
      2 O          -1.4330    8.3040   -3.3770 O.3     1  UNL1       -0.4914
      3 C          -1.7900    6.9910   -3.1930 C.ar    1  UNL1        0.1635
      4 C          -2.9450    6.5720   -2.5200 C.ar    1  UNL1        0.0098
      5 C          -3.2570    5.2290   -2.3620 C.ar    1  UNL1        0.0782
      6 N          -4.3850    4.9000   -1.7050 N.ar    1  UNL1       -0.2546
      7 C          -4.6920    3.5920   -1.5660 C.ar    1  UNL1        0.0318
      8 C          -3.9070    2.5660   -2.0430 C.ar    1  UNL1       -0.0006
      9 C          -2.7290    2.9140   -2.6960 C.ar    1  UNL1        0.1393
     10 O          -1.9190    1.9270   -3.2180 O.3     1  UNL1       -0.4524
     11 C          -1.3530    1.0510   -2.3180 C.ar    1  UNL1        0.1636
     12 C          -0.7930    1.4560   -1.1060 C.ar    1  UNL1       -0.0147
     13 C          -0.2020    0.5070   -0.2650 C.ar    1  UNL1       -0.0368
     14 C          -0.1500   -0.8470   -0.6290 C.ar    1  UNL1        0.0366
     15 N           0.4650   -1.7270    0.2850 N.am    1  UNL1       -0.2812
     16 C           0.6520   -3.0890    0.1570 C.2     1  UNL1        0.2553
     17 O           0.3140   -3.7700   -0.8050 O.2     1  UNL1       -0.2696
     18 C           1.3410   -3.7100    1.3140 C.ar    1  UNL1        0.1235
     19 C           1.5910   -5.0130    1.5500 C.ar    1  UNL1        0.0504
     20 C           1.1940   -6.1800    0.7010 C.3     1  UNL1       -0.0219
     21 N           2.3080   -5.2320    2.7390 N.ar    1  UNL1       -0.2833
     22 C           3.5560   -6.0150    2.6530 C.3     1  UNL1        0.0291
     23 N           2.4780   -3.9490    3.3240 N.ar    1  UNL1       -0.2166
     24 C           2.6910   -3.7880    4.7190 C.ar    1  UNL1        0.0673
     25 C           2.9950   -2.5300    5.2570 C.ar    1  UNL1       -0.0362
     26 C           3.2090   -2.3660    6.6300 C.ar    1  UNL1       -0.0598
     27 C           3.1180   -3.4580    7.4870 C.ar    1  UNL1       -0.0616
     28 C           2.8110   -4.7140    6.9730 C.ar    1  UNL1       -0.0598
     29 C           2.6000   -4.8760    5.6000 C.ar    1  UNL1       -0.0362
     30 C           1.9200   -2.9870    2.4770 C.ar    1  UNL1        0.2843
     31 O           1.8210   -1.7740    2.6090 O.2     1  UNL1       -0.2650
     32 C          -0.6950   -1.2400   -1.8510 C.ar    1  UNL1       -0.0015
     33 C          -1.2840   -0.2910   -2.6860 C.ar    1  UNL1        0.1672
     34 F          -1.7990   -0.6910   -3.8580 F       1  UNL1       -0.2016
     35 C          -2.3820    4.2650   -2.8940 C.ar    1  UNL1        0.0463
     36 C          -1.2170    4.6770   -3.5780 C.ar    1  UNL1       -0.0036
     37 C          -0.9160    6.0320   -3.7310 C.ar    1  UNL1        0.1623
     38 O           0.1950    6.5150   -4.3750 O.3     1  UNL1       -0.4914
     39 C           1.0630    5.5730   -4.9900 C.3     1  UNL1        0.0790
     40 H          -2.3720    9.2290   -1.7640 H       1  UNL1        0.0660
     41 H          -1.8640   10.2780   -3.0910 H       1  UNL1        0.0660
     42 H          -3.2860    9.2550   -3.3230 H       1  UNL1        0.0660
     43 H          -3.6410    7.2880   -2.0960 H       1  UNL1        0.0677
     44 H          -5.6230    3.3890   -1.0440 H       1  UNL1        0.0831
     45 H          -4.2050    1.5320   -1.9170 H       1  UNL1        0.0670
     46 H          -0.7980    2.5000   -0.8060 H       1  UNL1        0.0656
     47 H           0.2250    0.8440    0.6770 H       1  UNL1        0.0637
     48 H           0.8240   -1.2980    1.1400 H       1  UNL1        0.1551
     49 H           2.0030   -6.4440    0.0140 H       1  UNL1        0.0293
     50 H           0.9800   -7.0520    1.3290 H       1  UNL1        0.0293
     51 H           0.2870   -5.9910    0.1230 H       1  UNL1        0.0293
     52 H           3.3430   -7.0330    2.3120 H       1  UNL1        0.0472
     53 H           4.2560   -5.5520    1.9500 H       1  UNL1        0.0472
     54 H           4.0540   -6.0990    3.6220 H       1  UNL1        0.0472
     55 H           3.0910   -1.6540    4.6200 H       1  UNL1        0.0639
     56 H           3.4490   -1.3820    7.0250 H       1  UNL1        0.0618
     57 H           3.2810   -3.3290    8.5540 H       1  UNL1        0.0618
     58 H           2.7260   -5.5680    7.6390 H       1  UNL1        0.0618
     59 H           2.3280   -5.8640    5.2370 H       1  UNL1        0.0639
     60 H          -0.6820   -2.2690   -2.1930 H       1  UNL1        0.0666
     61 H          -0.5590    3.9130   -3.9820 H       1  UNL1        0.0663
     62 H           0.5400    4.9940   -5.7580 H       1  UNL1        0.0660
     63 H           1.8650    6.1300   -5.4840 H       1  UNL1        0.0660
     64 H           1.5250    4.9170   -4.2440 H       1  UNL1        0.0660
@<TRIPOS>BOND
     1     1     2    1
     2     1    40    1
     3     1    41    1
     4     1    42    1
     5     2     3    1
     6     3     4   ar
     7     3    37   ar
     8     4     5   ar
     9     4    43    1
    10     5     6   ar
    11     5    35   ar
    12     6     7   ar
    13     7     8   ar
    14     7    44    1
    15     8     9   ar
    16     8    45    1
    17     9    10    1
    18     9    35   ar
    19    10    11    1
    20    11    12   ar
    21    11    33   ar
    22    12    13   ar
    23    12    46    1
    24    13    14   ar
    25    13    47    1
    26    14    15    1
    27    14    32   ar
    28    15    16   am
    29    15    48    1
    30    16    17    2
    31    16    18    1
    32    18    19   ar
    33    18    30   ar
    34    19    20    1
    35    19    21   ar
    36    20    49    1
    37    20    50    1
    38    20    51    1
    39    21    22    1
    40    21    23   ar
    41    22    52    1
    42    22    53    1
    43    22    54    1
    44    23    24    1
    45    23    30   ar
    46    24    25   ar
    47    24    29   ar
    48    25    26   ar
    49    25    55    1
    50    26    27   ar
    51    26    56    1
    52    27    28   ar
    53    27    57    1
    54    28    29   ar
    55    28    58    1
    56    29    59    1
    57    30    31    2
    58    32    33   ar
    59    32    60    1
    60    33    34    1
    61    35    36   ar
    62    36    37   ar
    63    36    61    1
    64    37    38    1
    65    38    39    1
    66    39    62    1
    67    39    63    1
    68    39    64    1
@<TRIPOS>MOLECULE
AD3CC00152653-I00-C00
 52 56 0 0 0
SMALL
GASTEIGER

@<TRIPOS>ATOM
      1 C          -3.8370   -2.8540    1.2370 C.3     1  UNL1       -0.0380
      2 C          -2.3670   -2.8220    0.9080 C.ar    1  UNL1       -0.0292
      3 C          -1.4960   -3.6790    1.6010 C.ar    1  UNL1       -0.0564
      4 C          -0.1250   -3.6590    1.3450 C.ar    1  UNL1       -0.0493
      5 C           0.3910   -2.7830    0.3910 C.ar    1  UNL1        0.0385
      6 C           1.8590   -2.7600    0.1560 C.2     1  UNL1        0.2443
      7 O           2.5190   -3.7800    0.3200 O.2     1  UNL1       -0.2702
      8 N           2.3930   -1.5360   -0.2020 N.am    1  UNL1       -0.3085
      9 C           3.7890   -1.3570   -0.4520 C.3     1  UNL1        0.0235
     10 C           4.2870   -1.1670   -1.8570 C.3     1  UNL1       -0.0328
     11 C           4.3200   -0.0200   -0.8910 C.3     1  UNL1       -0.0328
     12 C          -0.4750   -1.9570   -0.3360 C.ar    1  UNL1       -0.0281
     13 C          -1.8550   -1.9480   -0.0760 C.ar    1  UNL1        0.0361
     14 N          -2.7460   -1.0780   -0.7640 N.pl3   1  UNL1       -0.2975
     15 C          -2.3450   -0.0660   -1.6080 C.ar    1  UNL1        0.1506
     16 N          -2.7970   -0.1110   -2.8300 N.ar    1  UNL1       -0.2167
     17 C          -2.3700    0.8270   -3.7370 C.ar    1  UNL1        0.1388
     18 N          -1.5260    1.7860   -3.5270 N.ar    1  UNL1       -0.1548
     19 N          -1.0910    1.8580   -2.2620 N.ar    1  UNL1       -0.2342
     20 C          -0.2070    2.7760   -1.7820 C.ar    1  UNL1        0.0412
     21 C          -0.0440    2.5740   -0.4210 C.ar    1  UNL1        0.0485
     22 C           0.8390    3.3990    0.4100 C.2     1  UNL1        0.2297
     23 O           0.9010    4.6160    0.2500 O.2     1  UNL1       -0.2833
     24 C           1.6470    2.6930    1.3870 C.ar    1  UNL1        0.1747
     25 C           2.4200    3.1890    2.4240 C.ar    1  UNL1       -0.0126
     26 C           3.0290    2.0790    3.0550 C.ar    1  UNL1       -0.0232
     27 C           2.6090    0.9700    2.3630 C.ar    1  UNL1        0.0927
     28 O           1.7820    1.3270    1.3460 O.2     1  UNL1       -0.4597
     29 C          -0.9460    1.5060   -0.0630 C.ar    1  UNL1       -0.0093
     30 C          -1.2640    1.0440    1.3190 C.3     1  UNL1       -0.0369
     31 C          -1.4780    1.0270   -1.2550 C.ar    1  UNL1        0.1089
     32 H          -4.1850   -1.8570    1.5240 H       1  UNL1        0.0278
     33 H          -4.4090   -3.2070    0.3730 H       1  UNL1        0.0278
     34 H          -4.0470   -3.5280    2.0740 H       1  UNL1        0.0278
     35 H          -1.8790   -4.3660    2.3530 H       1  UNL1        0.0621
     36 H           0.5390   -4.3230    1.8940 H       1  UNL1        0.0625
     37 H           1.8210   -0.7010   -0.1240 H       1  UNL1        0.1493
     38 H           4.4240   -1.9350    0.2170 H       1  UNL1        0.0498
     39 H           3.5610   -1.1390   -2.6610 H       1  UNL1        0.0284
     40 H           5.2250   -1.6400   -2.1240 H       1  UNL1        0.0284
     41 H           5.2840    0.2920   -0.5040 H       1  UNL1        0.0284
     42 H           3.6230    0.7940   -1.0490 H       1  UNL1        0.0284
     43 H          -0.0650   -1.3360   -1.1270 H       1  UNL1        0.0644
     44 H          -3.4620   -1.6410   -1.2170 H       1  UNL1        0.1536
     45 H          -2.7880    0.7280   -4.7540 H       1  UNL1        0.1066
     46 H           0.2330    3.5080   -2.4460 H       1  UNL1        0.0837
     47 H           2.5230    4.2350    2.6820 H       1  UNL1        0.0656
     48 H           3.6980    2.0870    3.9040 H       1  UNL1        0.0649
     49 H           2.8050   -0.0900    2.4600 H       1  UNL1        0.1029
     50 H          -0.6110    0.2210    1.6210 H       1  UNL1        0.0278
     51 H          -1.1430    1.8580    2.0410 H       1  UNL1        0.0278
     52 H          -2.3040    0.7110    1.3930 H       1  UNL1        0.0278
@<TRIPOS>BOND
     1     1     2    1
     2     1    32    1
     3     1    33    1
     4     1    34    1
     5     2     3   ar
     6     2    13   ar
     7     3     4   ar
     8     3    35    1
     9     4     5   ar
    10     4    36    1
    11     5     6    1
    12     5    12   ar
    13     6     7    2
    14     6     8   am
    15     8     9    1
    16     8    37    1
    17     9    10    1
    18     9    11    1
    19     9    38    1
    20    10    11    1
    21    10    39    1
    22    10    40    1
    23    11    41    1
    24    11    42    1
    25    12    13   ar
    26    12    43    1
    27    13    14    1
    28    14    15    1
    29    14    44    1
    30    15    16   ar
    31    15    31   ar
    32    16    17   ar
    33    17    18   ar
    34    17    45    1
    35    18    19   ar
    36    19    20   ar
    37    19    31   ar
    38    20    21   ar
    39    20    46    1
    40    21    22    1
    41    21    29   ar
    42    22    23    2
    43    22    24    1
    44    24    25   ar
    45    24    28   ar
    46    25    26   ar
    47    25    47    1
    48    26    27   ar
    49    26    48    1
    50    27    28   ar
    51    27    49    1
    52    29    30    1
    53    29    31   ar
    54    30    50    1
    55    30    51    1
    56    30    52    1
@<TRIPOS>MOLECULE
AD3CC00153050-I00-C00
 59 64 0 0 0
SMALL
GASTEIGER

@<TRIPOS>ATOM
      1 C           3.5530   -0.7440   -3.8690 C.3     1  UNL1       -0.0380
      2 C           2.2930   -1.3210   -3.2810 C.ar    1  UNL1       -0.0292
      3 C           1.1690   -1.4870   -4.1070 C.ar    1  UNL1       -0.0564
      4 C          -0.0260   -1.9910   -3.5920 C.ar    1  UNL1       -0.0493
      5 C          -0.1090   -2.3390   -2.2440 C.ar    1  UNL1        0.0385
      6 C          -1.4070   -2.8290   -1.7070 C.2     1  UNL1        0.2443
      7 O          -2.1840   -3.4280   -2.4420 O.2     1  UNL1       -0.2702
      8 N          -1.6710   -2.5040   -0.3880 N.am    1  UNL1       -0.3085
      9 C          -2.9050   -2.8390    0.2520 C.3     1  UNL1        0.0235
     10 C          -2.9100   -3.7190    1.4700 C.3     1  UNL1       -0.0328
     11 C          -3.2440   -2.2620    1.5990 C.3     1  UNL1       -0.0328
     12 C           1.0190   -2.2220   -1.4260 C.ar    1  UNL1       -0.0281
     13 C           2.2230   -1.6940   -1.9210 C.ar    1  UNL1        0.0361
     14 N           3.3640   -1.5140   -1.0890 N.pl3   1  UNL1       -0.2975
     15 C           3.3520   -1.7020    0.2770 C.ar    1  UNL1        0.1506
     16 N           4.1690   -2.6020    0.7500 N.ar    1  UNL1       -0.2167
     17 C           4.1370   -2.8940    2.0900 C.ar    1  UNL1        0.1388
     18 N           3.3510   -2.3780    2.9810 N.ar    1  UNL1       -0.1548
     19 N           2.5410   -1.4250    2.5020 N.ar    1  UNL1       -0.2342
     20 C           1.6320   -0.7210    3.2300 C.ar    1  UNL1        0.0411
     21 C           1.0370    0.2320    2.4170 C.ar    1  UNL1        0.0470
     22 C           0.0350    1.1690    2.9300 C.2     1  UNL1        0.2145
     23 O           0.0770    1.5600    4.0960 O.2     1  UNL1       -0.2849
     24 C          -1.0870    1.6340    2.0730 C.ar    1  UNL1        0.1297
     25 C          -1.8700    2.6840    2.5210 C.ar    1  UNL1        0.0574
     26 N          -2.9290    3.1560    1.8190 N.ar    1  UNL1       -0.2512
     27 C          -3.1940    2.5440    0.6500 C.ar    1  UNL1        0.0892
     28 C          -4.2650    2.9810   -0.1200 C.ar    1  UNL1       -0.0342
     29 C          -4.5720    2.3820   -1.3410 C.ar    1  UNL1       -0.0596
     30 C          -3.7920    1.3320   -1.8030 C.ar    1  UNL1       -0.0596
     31 C          -2.7120    0.8870   -1.0380 C.ar    1  UNL1       -0.0342
     32 C          -2.3980    1.4640    0.1860 C.ar    1  UNL1        0.0900
     33 N          -1.3500    0.9970    0.9010 N.ar    1  UNL1       -0.2404
     34 C           1.6790    0.1130    1.1310 C.ar    1  UNL1       -0.0094
     35 C           1.5210    1.0230   -0.0400 C.3     1  UNL1       -0.0369
     36 C           2.5160   -0.9960    1.2110 C.ar    1  UNL1        0.1089
     37 H           3.4060   -0.4330   -4.9090 H       1  UNL1        0.0278
     38 H           4.3540   -1.4900   -3.8540 H       1  UNL1        0.0278
     39 H           3.8660    0.1410   -3.3060 H       1  UNL1        0.0278
     40 H           1.2130   -1.2150   -5.1600 H       1  UNL1        0.0621
     41 H          -0.8910   -2.1040   -4.2420 H       1  UNL1        0.0625
     42 H          -1.0690   -1.8410    0.0890 H       1  UNL1        0.1493
     43 H          -3.7360   -2.9600   -0.4410 H       1  UNL1        0.0498
     44 H          -1.9590   -4.0620    1.8610 H       1  UNL1        0.0284
     45 H          -3.7140   -4.4390    1.5650 H       1  UNL1        0.0284
     46 H          -4.2770   -1.9910    1.7850 H       1  UNL1        0.0284
     47 H          -2.5230   -1.6200    2.0910 H       1  UNL1        0.0284
     48 H           0.9580   -2.5680   -0.3980 H       1  UNL1        0.0644
     49 H           4.1420   -2.0250   -1.4990 H       1  UNL1        0.1536
     50 H           4.8500   -3.6670    2.4240 H       1  UNL1        0.1066
     51 H           1.4890   -0.9400    4.2800 H       1  UNL1        0.0837
     52 H          -1.6780    3.1850    3.4650 H       1  UNL1        0.0853
     53 H          -4.8730    3.8070    0.2430 H       1  UNL1        0.0639
     54 H          -5.4170    2.7380   -1.9260 H       1  UNL1        0.0618
     55 H          -4.0180    0.8550   -2.7540 H       1  UNL1        0.0618
     56 H          -2.1040    0.0700   -1.4140 H       1  UNL1        0.0639
     57 H           0.7560    0.6540   -0.7270 H       1  UNL1        0.0278
     58 H           2.4630    1.1220   -0.5890 H       1  UNL1        0.0278
     59 H           1.2410    2.0320    0.2820 H       1  UNL1        0.0278
@<TRIPOS>BOND
     1     1     2    1
     2     1    37    1
     3     1    38    1
     4     1    39    1
     5     2     3   ar
     6     2    13   ar
     7     3     4   ar
     8     3    40    1
     9     4     5   ar
    10     4    41    1
    11     5     6    1
    12     5    12   ar
    13     6     7    2
    14     6     8   am
    15     8     9    1
    16     8    42    1
    17     9    10    1
    18     9    11    1
    19     9    43    1
    20    10    11    1
    21    10    44    1
    22    10    45    1
    23    11    46    1
    24    11    47    1
    25    12    13   ar
    26    12    48    1
    27    13    14    1
    28    14    15    1
    29    14    49    1
    30    15    16   ar
    31    15    36   ar
    32    16    17   ar
    33    17    18   ar
    34    17    50    1
    35    18    19   ar
    36    19    20   ar
    37    19    36   ar
    38    20    21   ar
    39    20    51    1
    40    21    22    1
    41    21    34   ar
    42    22    23    2
    43    22    24    1
    44    24    25   ar
    45    24    33   ar
    46    25    26   ar
    47    25    52    1
    48    26    27   ar
    49    27    28   ar
    50    27    32   ar
    51    28    29   ar
    52    28    53    1
    53    29    30   ar
    54    29    54    1
    55    30    31   ar
    56    30    55    1
    57    31    32   ar
    58    31    56    1
    59    32    33   ar
    60    34    35    1
    61    34    36   ar
    62    35    57    1
    63    35    58    1
    64    35    59    1
@<TRIPOS>MOLECULE
AD3CC00153439-I00-C00
 46 48 0 0 0
SMALL
GASTEIGER

@<TRIPOS>ATOM
      1 C          -2.5550   -1.6700   -4.0020 C.3     1  UNL1       -0.0377
      2 C          -1.0760   -1.7190   -4.2730 C.ar    1  UNL1       -0.0265
      3 C          -0.6450   -2.1530   -5.5380 C.ar    1  UNL1       -0.0562
      4 C           0.7150   -2.2350   -5.8450 C.ar    1  UNL1       -0.0493
      5 C           1.6680   -1.8680   -4.8910 C.ar    1  UNL1        0.0385
      6 C           3.1260   -1.9420   -5.1630 C.2     1  UNL1        0.2416
      7 N           3.5290   -1.8530   -6.4660 N.am    1  UNL1       -0.3253
      8 O           3.9420   -2.0450   -4.2560 O.2     1  UNL1       -0.2704
      9 C           1.2520   -1.4310   -3.6300 C.ar    1  UNL1       -0.0254
     10 C          -0.1120   -1.3410   -3.3150 C.ar    1  UNL1        0.0533
     11 N          -0.4850   -0.8520   -2.0200 N.ar    1  UNL1       -0.2801
     12 C          -0.1530   -1.5430   -0.8450 C.ar    1  UNL1        0.0276
     13 C           0.4770   -2.9110   -0.9230 C.3     1  UNL1       -0.0237
     14 C          -0.4670   -1.0210    0.3510 C.ar    1  UNL1        0.0009
     15 C          -1.1270    0.2520    0.4600 C.ar    1  UNL1        0.1418
     16 O          -1.4370    0.6400    1.7480 O.3     1  UNL1       -0.4859
     17 C          -0.3450    1.3400    2.3630 C.3     1  UNL1        0.1173
     18 C          -0.7850    1.8790    3.7000 C.ar    1  UNL1        0.0250
     19 C          -2.0530    2.4560    3.8780 C.ar    1  UNL1       -0.0499
     20 C          -2.4210    2.9790    5.1190 C.ar    1  UNL1       -0.0259
     21 C          -1.5200    2.9380    6.1780 C.ar    1  UNL1        0.1261
     22 F          -1.8770    3.4420    7.3660 F       1  UNL1       -0.2054
     23 C          -0.2570    2.3880    6.0220 C.ar    1  UNL1        0.0092
     24 C           0.1010    1.8690    4.7830 C.ar    1  UNL1        0.1325
     25 F           1.3290    1.3510    4.6330 F       1  UNL1       -0.2050
     26 C          -1.5140    0.9330   -0.6300 C.ar    1  UNL1        0.1241
     27 BR         -2.4660    2.5430   -0.5420 Br      1  UNL1       -0.0409
     28 C          -1.1470    0.3990   -1.9880 C.ar    1  UNL1        0.2735
     29 O          -1.4080    1.0640   -2.9930 O.2     1  UNL1       -0.2660
     30 H          -3.0820   -2.4310   -4.5880 H       1  UNL1        0.0278
     31 H          -2.7790   -1.8800   -2.9510 H       1  UNL1        0.0278
     32 H          -2.9590   -0.6890   -4.2700 H       1  UNL1        0.0278
     33 H          -1.3750   -2.4420   -6.2930 H       1  UNL1        0.0621
     34 H           1.0110   -2.6080   -6.8210 H       1  UNL1        0.0625
     35 H           4.5270   -1.7650   -6.6100 H       1  UNL1        0.1453
     36 H           2.9260   -1.4720   -7.1820 H       1  UNL1        0.1453
     37 H           2.0000   -1.1260   -2.9000 H       1  UNL1        0.0646
     38 H           1.5200   -2.8480   -1.2440 H       1  UNL1        0.0292
     39 H          -0.0740   -3.5610   -1.6110 H       1  UNL1        0.0292
     40 H           0.4730   -3.4140    0.0520 H       1  UNL1        0.0292
     41 H          -0.2570   -1.5580    1.2720 H       1  UNL1        0.0672
     42 H           0.4940    0.6450    2.4920 H       1  UNL1        0.0749
     43 H          -0.0200    2.1810    1.7380 H       1  UNL1        0.0749
     44 H          -2.7610    2.4960    3.0510 H       1  UNL1        0.0623
     45 H          -3.4030    3.4200    5.2650 H       1  UNL1        0.0646
     46 H           0.4410    2.3670    6.8500 H       1  UNL1        0.0675
@<TRIPOS>BOND
     1     1     2    1
     2     1    30    1
     3     1    31    1
     4     1    32    1
     5     2     3   ar
     6     2    10   ar
     7     3     4   ar
     8     3    33    1
     9     4     5   ar
    10     4    34    1
    11     5     6    1
    12     5     9   ar
    13     6     7   am
    14     6     8    2
    15     7    35    1
    16     7    36    1
    17     9    10   ar
    18     9    37    1
    19    10    11    1
    20    11    12   ar
    21    11    28   ar
    22    12    13    1
    23    12    14   ar
    24    13    38    1
    25    13    39    1
    26    13    40    1
    27    14    15   ar
    28    14    41    1
    29    15    16    1
    30    15    26   ar
    31    16    17    1
    32    17    18    1
    33    17    42    1
    34    17    43    1
    35    18    19   ar
    36    18    24   ar
    37    19    20   ar
    38    19    44    1
    39    20    21   ar
    40    20    45    1
    41    21    22    1
    42    21    23   ar
    43    23    24   ar
    44    23    46    1
    45    24    25    1
    46    26    27    1
    47    26    28   ar
    48    28    29    2
@<TRIPOS>MOLECULE
AD3CC00153442-I00-C01
 55 57 0 0 0
SMALL
GASTEIGER

@<TRIPOS>ATOM
      1 C           4.8360    1.3190    1.2540 C.3     1  UNL1       -0.0377
      2 C           3.4540    1.5110    1.8210 C.ar    1  UNL1       -0.0264
      3 C           3.3390    2.3110    2.9720 C.ar    1  UNL1       -0.0562
      4 C           2.1150    2.4680    3.6220 C.ar    1  UNL1       -0.0493
      5 C           0.9740    1.8280    3.1350 C.ar    1  UNL1        0.0387
      6 C          -0.3090    2.0070    3.8790 C.2     1  UNL1        0.2442
      7 O          -0.4220    2.9050    4.7060 O.2     1  UNL1       -0.2702
      8 N          -1.3100    1.1040    3.6050 N.am    1  UNL1       -0.3110
      9 C          -2.5210    1.0400    4.3960 C.3     1  UNL1        0.0166
     10 C          -3.5790    0.1350    3.7420 C.3     1  UNL1       -0.0051
     11 C          -4.8730    0.1710    4.5520 C.3     1  UNL1       -0.0589
     12 C          -3.0890   -1.3140    3.5920 C.3     1  UNL1        0.0482
     13 O          -1.9540   -1.3560    2.7290 O.3     1  UNL1       -0.3947
     14 C           1.0680    1.0640    1.9640 C.ar    1  UNL1       -0.0253
     15 C           2.2930    0.9030    1.2890 C.ar    1  UNL1        0.0545
     16 N           2.3120    0.1410    0.0740 N.ar    1  UNL1       -0.2659
     17 C           2.9170    0.6560   -1.0470 C.ar    1  UNL1        0.1071
     18 N           2.9940    0.0730   -2.1960 N.ar    1  UNL1       -0.2014
     19 C           2.4040   -1.1580   -2.3220 C.ar    1  UNL1        0.2407
     20 O           2.4890   -1.8080   -3.5480 O.3     1  UNL1       -0.4704
     21 C           2.5280   -0.9470   -4.6930 C.3     1  UNL1        0.1190
     22 C           1.1780   -0.3470   -4.9990 C.ar    1  UNL1        0.0250
     23 C           0.0140   -1.1340   -4.9860 C.ar    1  UNL1       -0.0499
     24 C          -1.2240   -0.5630   -5.2830 C.ar    1  UNL1       -0.0259
     25 C          -1.3000    0.7890   -5.6020 C.ar    1  UNL1        0.1261
     26 F          -2.4900    1.3320   -5.8870 F       1  UNL1       -0.2054
     27 C          -0.1620    1.5820   -5.6330 C.ar    1  UNL1        0.0092
     28 C           1.0680    1.0060   -5.3360 C.ar    1  UNL1        0.1325
     29 F           2.1640    1.7760   -5.3800 F       1  UNL1       -0.2050
     30 C           1.7490   -1.7670   -1.3220 C.ar    1  UNL1        0.1669
     31 CL          0.9910   -3.3080   -1.4900 Cl      1  UNL1       -0.0723
     32 C           1.6610   -1.0880   -0.0010 C.ar    1  UNL1        0.2805
     33 O           1.0740   -1.6320    0.9360 O.2     1  UNL1       -0.2655
     34 H           5.0590    2.0980    0.5190 H       1  UNL1        0.0278
     35 H           4.9480    0.3330    0.7940 H       1  UNL1        0.0278
     36 H           5.5910    1.3730    2.0470 H       1  UNL1        0.0278
     37 H           4.2170    2.8020    3.3920 H       1  UNL1        0.0621
     38 H           2.0570    3.0800    4.5200 H       1  UNL1        0.0625
     39 H          -1.0850    0.2410    3.1130 H       1  UNL1        0.1490
     40 H          -2.2470    0.6690    5.3900 H       1  UNL1        0.0465
     41 H          -2.9060    2.0590    4.5180 H       1  UNL1        0.0465
     42 H          -3.7820    0.5290    2.7370 H       1  UNL1        0.0335
     43 H          -5.6490   -0.4360    4.0740 H       1  UNL1        0.0234
     44 H          -4.7180   -0.2130    5.5660 H       1  UNL1        0.0234
     45 H          -5.2530    1.1950    4.6320 H       1  UNL1        0.0234
     46 H          -3.8710   -1.9410    3.1520 H       1  UNL1        0.0560
     47 H          -2.8030   -1.7370    4.5610 H       1  UNL1        0.0560
     48 H          -1.7030   -2.2920    2.6170 H       1  UNL1        0.2094
     49 H           0.1690    0.6220    1.5410 H       1  UNL1        0.0646
     50 H           3.3420    1.6660   -0.9360 H       1  UNL1        0.1034
     51 H           3.3190   -0.1940   -4.5960 H       1  UNL1        0.0749
     52 H           2.8140   -1.5720   -5.5480 H       1  UNL1        0.0749
     53 H           0.0710   -2.1940   -4.7400 H       1  UNL1        0.0623
     54 H          -2.1290   -1.1630   -5.2690 H       1  UNL1        0.0646
     55 H          -0.2300    2.6320   -5.8890 H       1  UNL1        0.0675
@<TRIPOS>BOND
     1     1     2    1
     2     1    34    1
     3     1    35    1
     4     1    36    1
     5     2     3   ar
     6     2    15   ar
     7     3     4   ar
     8     3    37    1
     9     4     5   ar
    10     4    38    1
    11     5     6    1
    12     5    14   ar
    13     6     7    2
    14     6     8   am
    15     8     9    1
    16     8    39    1
    17     9    10    1
    18     9    40    1
    19     9    41    1
    20    10    11    1
    21    10    12    1
    22    10    42    1
    23    11    43    1
    24    11    44    1
    25    11    45    1
    26    12    13    1
    27    12    46    1
    28    12    47    1
    29    13    48    1
    30    14    15   ar
    31    14    49    1
    32    15    16    1
    33    16    17   ar
    34    16    32   ar
    35    17    18   ar
    36    17    50    1
    37    18    19   ar
    38    19    20    1
    39    19    30   ar
    40    20    21    1
    41    21    22    1
    42    21    51    1
    43    21    52    1
    44    22    23   ar
    45    22    28   ar
    46    23    24   ar
    47    23    53    1
    48    24    25   ar
    49    24    54    1
    50    25    26    1
    51    25    27   ar
    52    27    28   ar
    53    27    55    1
    54    28    29    1
    55    30    31    1
    56    30    32   ar
    57    32    33    2
@<TRIPOS>MOLECULE
AD3CC00153460-I00-C00
 53 57 0 0 0
SMALL
GASTEIGER

@<TRIPOS>ATOM
      1 C           0.4930    5.1610   -2.3730 C.3     1  UNL1       -0.0380
      2 C           0.0250    4.1590   -1.3510 C.ar    1  UNL1       -0.0292
      3 C           0.2650    4.4130    0.0120 C.ar    1  UNL1       -0.0564
      4 C          -0.0990    3.4850    0.9900 C.ar    1  UNL1       -0.0493
      5 C          -0.7380    2.3050    0.6140 C.ar    1  UNL1        0.0385
      6 C          -1.0710    1.2270    1.5810 C.2     1  UNL1        0.2443
      7 O          -1.0800    0.0600    1.1980 O.2     1  UNL1       -0.2702
      8 N          -1.3610    1.6250    2.8700 N.am    1  UNL1       -0.3085
      9 C          -1.7090    0.6830    3.8870 C.3     1  UNL1        0.0235
     10 C          -0.6450    0.0910    4.7690 C.3     1  UNL1       -0.0328
     11 C          -1.6370    1.0620    5.3400 C.3     1  UNL1       -0.0328
     12 C          -1.0080    2.0620   -0.7380 C.ar    1  UNL1       -0.0281
     13 C          -0.6110    2.9600   -1.7390 C.ar    1  UNL1        0.0361
     14 N          -0.7730    2.6650   -3.1200 N.pl3   1  UNL1       -0.2975
     15 C          -1.2390    1.4670   -3.6160 C.ar    1  UNL1        0.1506
     16 N          -2.2750    1.5330   -4.4050 N.ar    1  UNL1       -0.2167
     17 C          -2.8420    0.3710   -4.8650 C.ar    1  UNL1        0.1388
     18 N          -2.4730   -0.8390   -4.5880 N.ar    1  UNL1       -0.1548
     19 N          -1.3850   -0.9090   -3.8090 N.ar    1  UNL1       -0.2342
     20 C          -0.7950   -2.0590   -3.3780 C.ar    1  UNL1        0.0411
     21 C           0.3430   -1.7360   -2.6600 C.ar    1  UNL1        0.0469
     22 C           1.2350   -2.7370   -2.0700 C.2     1  UNL1        0.2109
     23 O           1.5510   -3.7460   -2.6950 O.2     1  UNL1       -0.2850
     24 C           1.7050   -2.4630   -0.7220 C.ar    1  UNL1        0.0872
     25 C           2.8440   -2.9780   -0.1170 C.ar    1  UNL1       -0.0332
     26 C           2.9220   -2.4690    1.1990 C.ar    1  UNL1       -0.0437
     27 C           1.8180   -1.6750    1.3880 C.ar    1  UNL1        0.0023
     28 N           1.0740   -1.6910    0.2340 N.ar    1  UNL1       -0.3581
     29 C           0.4690   -0.3010   -2.7270 C.ar    1  UNL1       -0.0094
     30 C           1.6380    0.4980   -2.2570 C.3     1  UNL1       -0.0369
     31 C          -0.6880    0.1650   -3.3430 C.ar    1  UNL1        0.1089
     32 H           1.2260    4.7040   -3.0450 H       1  UNL1        0.0278
     33 H           0.9710    6.0260   -1.9000 H       1  UNL1        0.0278
     34 H          -0.3560    5.5340   -2.9550 H       1  UNL1        0.0278
     35 H           0.7740    5.3260    0.3170 H       1  UNL1        0.0621
     36 H           0.1620    3.6840    2.0260 H       1  UNL1        0.0625
     37 H          -1.4930    2.6080    3.0710 H       1  UNL1        0.1493
     38 H          -2.5220    0.0220    3.5940 H       1  UNL1        0.0498
     39 H          -0.7400   -0.9560    5.0330 H       1  UNL1        0.0284
     40 H           0.3780    0.4210    4.6340 H       1  UNL1        0.0284
     41 H          -2.4020    0.6730    6.0020 H       1  UNL1        0.0284
     42 H          -1.2770    2.0470    5.6100 H       1  UNL1        0.0284
     43 H          -1.5220    1.1390   -0.9950 H       1  UNL1        0.0644
     44 H          -1.2400    3.4420   -3.5790 H       1  UNL1        0.1536
     45 H          -3.7160    0.4990   -5.5260 H       1  UNL1        0.1066
     46 H          -1.2240   -3.0200   -3.6270 H       1  UNL1        0.0837
     47 H           3.5460   -3.6530   -0.5930 H       1  UNL1        0.0640
     48 H           3.6920   -2.6730    1.9320 H       1  UNL1        0.0633
     49 H           1.4740   -1.1120    2.2460 H       1  UNL1        0.0807
     50 H           0.1830   -1.2110    0.1300 H       1  UNL1        0.1654
     51 H           2.5660   -0.0700   -2.3720 H       1  UNL1        0.0278
     52 H           1.5340    0.7700   -1.2040 H       1  UNL1        0.0278
     53 H           1.7550    1.4130   -2.8460 H       1  UNL1        0.0278
@<TRIPOS>BOND
     1     1     2    1
     2     1    32    1
     3     1    33    1
     4     1    34    1
     5     2     3   ar
     6     2    13   ar
     7     3     4   ar
     8     3    35    1
     9     4     5   ar
    10     4    36    1
    11     5     6    1
    12     5    12   ar
    13     6     7    2
    14     6     8   am
    15     8     9    1
    16     8    37    1
    17     9    10    1
    18     9    11    1
    19     9    38    1
    20    10    11    1
    21    10    39    1
    22    10    40    1
    23    11    41    1
    24    11    42    1
    25    12    13   ar
    26    12    43    1
    27    13    14    1
    28    14    15    1
    29    14    44    1
    30    15    16   ar
    31    15    31   ar
    32    16    17   ar
    33    17    18   ar
    34    17    45    1
    35    18    19   ar
    36    19    20   ar
    37    19    31   ar
    38    20    21   ar
    39    20    46    1
    40    21    22    1
    41    21    29   ar
    42    22    23    2
    43    22    24    1
    44    24    25   ar
    45    24    28   ar
    46    25    26   ar
    47    25    47    1
    48    26    27   ar
    49    26    48    1
    50    27    28   ar
    51    27    49    1
    52    28    50    1
    53    29    30    1
    54    29    31   ar
    55    30    51    1
    56    30    52    1
    57    30    53    1
@<TRIPOS>MOLECULE
AD3CC00155562-I00-C00
 54 58 0 0 0
SMALL
GASTEIGER

@<TRIPOS>ATOM
      1 C          -0.8680   -2.6830    1.2410 C.3     1  UNL1       -0.0454
      2 C           0.5710   -2.6110    0.7490 C.3     1  UNL1        0.0411
      3 N           0.6530   -2.2390   -0.6630 N.ar    1  UNL1       -0.2419
      4 C           0.6080   -0.8710   -0.9440 C.ar    1  UNL1        0.2740
      5 O           0.8400   -0.0130   -0.0920 O.2     1  UNL1       -0.2656
      6 C           0.1800   -0.4390   -2.3200 C.ar    1  UNL1        0.0519
      7 C           0.1720    0.9920   -2.6930 C.ar    1  UNL1       -0.0062
      8 C          -0.7010    1.8510   -2.0000 C.ar    1  UNL1       -0.0413
      9 C          -0.7590    3.2160   -2.3080 C.ar    1  UNL1        0.0400
     10 C          -1.6560    4.1400   -1.5690 C.2     1  UNL1        0.2444
     11 O          -2.1590    5.0940   -2.1510 O.2     1  UNL1       -0.2702
     12 N          -1.8330    3.8610   -0.2270 N.am    1  UNL1       -0.3085
     13 C          -2.6320    4.6920    0.6170 C.3     1  UNL1        0.0235
     14 C          -2.9990    4.2440    2.0060 C.3     1  UNL1       -0.0328
     15 C          -4.0500    4.3080    0.9370 C.3     1  UNL1       -0.0328
     16 C           0.0180    3.7260   -3.3450 C.ar    1  UNL1       -0.0140
     17 C           0.8830    2.8800   -4.0280 C.ar    1  UNL1        0.1276
     18 F           1.6320    3.3970   -5.0140 F       1  UNL1       -0.2052
     19 C           0.9980    1.5200   -3.7080 C.ar    1  UNL1       -0.0074
     20 C           1.9690    0.6730   -4.4850 C.3     1  UNL1       -0.0364
     21 C          -0.3030   -1.3450   -3.1830 C.ar    1  UNL1       -0.0027
     22 C          -0.2580   -2.7110   -2.8670 C.ar    1  UNL1        0.1772
     23 N          -0.5950   -3.7760   -3.5590 N.ar    1  UNL1       -0.1276
     24 N          -0.1380   -4.8790   -2.8760 N.ar    1  UNL1       -0.1269
     25 C           0.4850   -4.4720   -1.7810 C.ar    1  UNL1        0.1877
     26 C           1.2710   -5.3310   -0.9080 C.ar    1  UNL1        0.0743
     27 C           2.6570   -5.1420   -0.8310 C.ar    1  UNL1        0.1355
     28 F           3.2380   -4.1490   -1.5220 F       1  UNL1       -0.2047
     29 C           3.4640   -5.9550   -0.0390 C.ar    1  UNL1       -0.0257
     30 C           2.8900   -6.9880    0.6960 C.ar    1  UNL1       -0.0576
     31 C           1.5110   -7.1970    0.6340 C.ar    1  UNL1       -0.0425
     32 C           0.7050   -6.3750   -0.1640 C.ar    1  UNL1        0.0545
     33 CL         -0.9990   -6.6700   -0.1440 Cl      1  UNL1       -0.0827
     34 N           0.3010   -3.1100   -1.6830 N.ar    1  UNL1       -0.2096
     35 H          -1.4410   -3.4320    0.6850 H       1  UNL1        0.0247
     36 H          -1.3750   -1.7200    1.1220 H       1  UNL1        0.0247
     37 H          -0.8930   -2.9530    2.3010 H       1  UNL1        0.0247
     38 H           1.1130   -1.8730    1.3510 H       1  UNL1        0.0507
     39 H           1.0770   -3.5600    0.9240 H       1  UNL1        0.0507
     40 H          -1.3470    1.4430   -1.2240 H       1  UNL1        0.0631
     41 H          -1.2330    3.1760    0.2170 H       1  UNL1        0.1493
     42 H          -2.4310    5.7530    0.4850 H       1  UNL1        0.0498
     43 H          -2.6810    3.2640    2.3420 H       1  UNL1        0.0284
     44 H          -3.0240    4.9950    2.7870 H       1  UNL1        0.0284
     45 H          -4.4320    3.3780    0.5350 H       1  UNL1        0.0284
     46 H          -4.7830    5.1050    0.9840 H       1  UNL1        0.0284
     47 H          -0.0340    4.7760   -3.6180 H       1  UNL1        0.0654
     48 H           1.4460    0.1260   -5.2740 H       1  UNL1        0.0279
     49 H           2.7490    1.2850   -4.9510 H       1  UNL1        0.0279
     50 H           2.4840   -0.0360   -3.8290 H       1  UNL1        0.0279
     51 H          -0.6830   -1.0660   -4.1610 H       1  UNL1        0.0663
     52 H           4.5350   -5.7790   -0.0050 H       1  UNL1        0.0646
     53 H           3.5130   -7.6320    1.3140 H       1  UNL1        0.0619
     54 H           1.0670   -8.0050    1.2130 H       1  UNL1        0.0632
@<TRIPOS>BOND
     1     1     2    1
     2     1    35    1
     3     1    36    1
     4     1    37    1
     5     2     3    1
     6     2    38    1
     7     2    39    1
     8     3     4   ar
     9     3    34   ar
    10     4     5    2
    11     4     6   ar
    12     6     7    1
    13     6    21   ar
    14     7     8   ar
    15     7    19   ar
    16     8     9   ar
    17     8    40    1
    18     9    10    1
    19     9    16   ar
    20    10    11    2
    21    10    12   am
    22    12    13    1
    23    12    41    1
    24    13    14    1
    25    13    15    1
    26    13    42    1
    27    14    15    1
    28    14    43    1
    29    14    44    1
    30    15    45    1
    31    15    46    1
    32    16    17   ar
    33    16    47    1
    34    17    18    1
    35    17    19   ar
    36    19    20    1
    37    20    48    1
    38    20    49    1
    39    20    50    1
    40    21    22   ar
    41    21    51    1
    42    22    23   ar
    43    22    34   ar
    44    23    24   ar
    45    24    25   ar
    46    25    26    1
    47    25    34   ar
    48    26    27   ar
    49    26    32   ar
    50    27    28    1
    51    27    29   ar
    52    29    30   ar
    53    29    52    1
    54    30    31   ar
    55    30    53    1
    56    31    32   ar
    57    31    54    1
    58    32    33    1
@<TRIPOS>MOLECULE
AD3CC00157273-I00-C00
 65 67 0 0 0
SMALL
GASTEIGER

@<TRIPOS>ATOM
      1 C           2.4760    4.9400   -2.0090 C.3     1  UNL1       -0.0556
      2 C           3.1530    3.7320   -1.3260 C.3     1  UNL1       -0.0064
      3 C           3.6910    2.8200   -2.4530 C.3     1  UNL1       -0.0556
      4 C           4.3440    4.2310   -0.4840 C.3     1  UNL1       -0.0556
      5 C           2.1920    2.9510   -0.4200 C.ar    1  UNL1       -0.0023
      6 C           2.2340    1.6090   -0.0790 C.ar    1  UNL1       -0.0370
      7 C           1.1830    1.1940    0.8180 C.ar    1  UNL1        0.0657
      8 C           1.0840   -0.1340    1.4250 C.2     1  UNL1        0.2490
      9 O           1.0400   -0.2520    2.6490 O.2     1  UNL1       -0.2699
     10 N           1.1600   -1.2460    0.5710 N.am    1  UNL1       -0.2955
     11 C           1.2530   -2.5610    1.1980 C.3     1  UNL1        0.0233
     12 C          -0.1110   -3.1680    1.4860 C.3     1  UNL1        0.0399
     13 C          -0.6090   -3.9460    0.2900 C.2     1  UNL1        0.2171
     14 O          -0.8420   -5.1530    0.3900 O.2     1  UNL1       -0.2755
     15 N          -0.7870   -3.2580   -0.9020 N.am    1  UNL1       -0.2995
     16 C          -1.2610   -4.0040   -2.0730 C.3     1  UNL1        0.0230
     17 C          -2.7570   -4.3050   -2.0370 C.3     1  UNL1        0.0395
     18 C          -3.6050   -3.1550   -2.5260 C.2     1  UNL1        0.2120
     19 N          -4.9320   -3.2680   -2.2240 N.am    1  UNL1       -0.3293
     20 O          -3.1940   -2.2100   -3.1870 O.2     1  UNL1       -0.2760
     21 C          -0.7320   -1.7930   -0.9940 C.3     1  UNL1        0.0305
     22 C           0.6860   -1.2230   -0.8190 C.3     1  UNL1        0.0308
     23 C           0.3770    2.2690    1.1240 C.ar    1  UNL1        0.0853
     24 N          -0.7540    2.4370    1.8920 N.am    1  UNL1       -0.2629
     25 C          -1.6810    1.4270    2.0830 C.2     1  UNL1        0.3085
     26 O          -1.6980    0.3780    1.4510 O.2     1  UNL1       -0.2521
     27 N          -2.5960    1.7930    3.0510 N.am    1  UNL1       -0.2678
     28 C          -3.7290    1.0740    3.5060 C.ar    1  UNL1        0.0546
     29 C          -4.1910   -0.0890    2.8790 C.ar    1  UNL1       -0.0389
     30 C          -5.3120   -0.7670    3.3670 C.ar    1  UNL1       -0.0585
     31 C          -5.9890   -0.2860    4.4850 C.ar    1  UNL1       -0.0419
     32 C          -5.5500    0.8780    5.1200 C.ar    1  UNL1        0.0610
     33 CL         -6.4460    1.4180    6.4980 Cl      1  UNL1       -0.0820
     34 C          -4.4250    1.5620    4.6350 C.ar    1  UNL1        0.0804
     35 CL         -3.8670    3.0200    5.4090 Cl      1  UNL1       -0.0801
     36 S           0.9160    3.7240    0.4340 S.2     1  UNL1       -0.0771
     37 H           1.5850    4.6320   -2.5740 H       1  UNL1        0.0238
     38 H           2.1700    5.7050   -1.2850 H       1  UNL1        0.0238
     39 H           3.1600    5.4280   -2.7130 H       1  UNL1        0.0238
     40 H           4.3440    3.3760   -3.1350 H       1  UNL1        0.0238
     41 H           4.2810    1.9860   -2.0560 H       1  UNL1        0.0238
     42 H           2.8720    2.3970   -3.0480 H       1  UNL1        0.0238
     43 H           4.0150    4.9050    0.3170 H       1  UNL1        0.0238
     44 H           5.0680    4.7770   -1.1000 H       1  UNL1        0.0238
     45 H           4.8760    3.3970   -0.0110 H       1  UNL1        0.0238
     46 H           3.0050    0.9310   -0.4260 H       1  UNL1        0.0634
     47 H           1.8570   -3.2050    0.5470 H       1  UNL1        0.0469
     48 H           1.8050   -2.4620    2.1400 H       1  UNL1        0.0469
     49 H          -0.8590   -2.4290    1.7900 H       1  UNL1        0.0374
     50 H          -0.0080   -3.8820    2.3120 H       1  UNL1        0.0374
     51 H          -0.7250   -4.9610   -2.0830 H       1  UNL1        0.0469
     52 H          -0.9610   -3.4750   -2.9840 H       1  UNL1        0.0469
     53 H          -3.0800   -4.5910   -1.0300 H       1  UNL1        0.0374
     54 H          -2.9640   -5.1470   -2.7080 H       1  UNL1        0.0374
     55 H          -5.2760   -3.9380   -1.5500 H       1  UNL1        0.1449
     56 H          -5.5330   -2.4980   -2.4850 H       1  UNL1        0.1449
     57 H          -1.4220   -1.3830   -0.2530 H       1  UNL1        0.0480
     58 H          -1.0950   -1.4920   -1.9810 H       1  UNL1        0.0480
     59 H           1.4070   -1.7900   -1.4190 H       1  UNL1        0.0480
     60 H           0.6750   -0.2010   -1.2020 H       1  UNL1        0.0480
     61 H          -1.0870    3.3870    1.9790 H       1  UNL1        0.1569
     62 H          -2.3280    2.5820    3.6290 H       1  UNL1        0.1564
     63 H          -3.6990   -0.4990    2.0020 H       1  UNL1        0.0637
     64 H          -5.6530   -1.6730    2.8700 H       1  UNL1        0.0619
     65 H          -6.8590   -0.8230    4.8570 H       1  UNL1        0.0633
@<TRIPOS>BOND
     1     2     1    1
     2     1    37    1
     3     1    38    1
     4     1    39    1
     5     2     3    1
     6     2     4    1
     7     2     5    1
     8     3    40    1
     9     3    41    1
    10     3    42    1
    11     4    43    1
    12     4    44    1
    13     4    45    1
    14     5     6   ar
    15     5    36   ar
    16     6     7   ar
    17     6    46    1
    18     7     8    1
    19     7    23   ar
    20     8     9    2
    21     8    10   am
    22    10    11    1
    23    10    22    1
    24    11    12    1
    25    11    47    1
    26    11    48    1
    27    12    13    1
    28    12    49    1
    29    12    50    1
    30    13    14    2
    31    13    15   am
    32    15    16    1
    33    15    21    1
    34    16    17    1
    35    16    51    1
    36    16    52    1
    37    17    18    1
    38    17    53    1
    39    17    54    1
    40    18    19   am
    41    18    20    2
    42    19    55    1
    43    19    56    1
    44    21    22    1
    45    21    57    1
    46    21    58    1
    47    22    59    1
    48    22    60    1
    49    23    24    1
    50    23    36   ar
    51    24    25   am
    52    24    61    1
    53    25    26    2
    54    25    27   am
    55    27    28    1
    56    27    62    1
    57    28    29   ar
    58    28    34   ar
    59    29    30   ar
    60    29    63    1
    61    30    31   ar
    62    30    64    1
    63    31    32   ar
    64    31    65    1
    65    32    33    1
    66    32    34   ar
    67    34    35    1
@<TRIPOS>MOLECULE
AD3CC00157602-I00-C00
 54 58 0 0 0
SMALL
GASTEIGER

@<TRIPOS>ATOM
      1 C          -2.3240    2.5380   -0.9200 C.3     1  UNL1       -0.0454
      2 C          -2.1510    1.2620   -1.7310 C.3     1  UNL1        0.0411
      3 N          -0.7730    0.7720   -1.7040 N.ar    1  UNL1       -0.2419
      4 C          -0.4230   -0.0250   -0.6100 C.ar    1  UNL1        0.2740
      5 O          -1.2640   -0.5900    0.0910 O.2     1  UNL1       -0.2656
      6 C           1.0310   -0.1210   -0.2350 C.ar    1  UNL1        0.0518
      7 C           1.4710   -0.9970    0.8710 C.ar    1  UNL1       -0.0089
      8 C           1.0190   -0.7000    2.1690 C.ar    1  UNL1       -0.0415
      9 C           1.4050   -1.4890    3.2580 C.ar    1  UNL1        0.0373
     10 C           0.9140   -1.2080    4.6330 C.2     1  UNL1        0.2443
     11 O           1.6320   -1.4430    5.5990 O.2     1  UNL1       -0.2702
     12 N          -0.3770   -0.7200    4.7200 N.am    1  UNL1       -0.3085
     13 C          -1.0000   -0.4510    5.9760 C.3     1  UNL1        0.0235
     14 C          -1.0460    0.9510    6.5160 C.3     1  UNL1       -0.0328
     15 C          -2.3060    0.2910    6.0390 C.3     1  UNL1       -0.0328
     16 C           2.2860   -2.5540    3.0650 C.ar    1  UNL1       -0.0494
     17 C           2.7390   -2.8600    1.7820 C.ar    1  UNL1       -0.0575
     18 C           2.3230   -2.1060    0.6710 C.ar    1  UNL1       -0.0425
     19 C           2.8300   -2.4960   -0.6920 C.3     1  UNL1       -0.0391
     20 C           1.9270    0.6810   -0.8310 C.ar    1  UNL1       -0.0027
     21 C           1.5420    1.4820   -1.9160 C.ar    1  UNL1        0.1772
     22 N           2.2300    2.2870   -2.6940 N.ar    1  UNL1       -0.1276
     23 N           1.4150    2.6510   -3.7430 N.ar    1  UNL1       -0.1269
     24 C           0.2470    2.0430   -3.6020 C.ar    1  UNL1        0.1891
     25 C          -0.7980    2.0190   -4.6080 C.ar    1  UNL1        0.0911
     26 C          -1.3830    3.2000   -5.0670 C.ar    1  UNL1        0.1369
     27 F          -1.0330    4.3810   -4.5370 F       1  UNL1       -0.2047
     28 C          -2.3680    3.1840   -6.0550 C.ar    1  UNL1       -0.0256
     29 C          -2.7790    1.9710   -6.6090 C.ar    1  UNL1       -0.0563
     30 C          -2.2020    0.7820   -6.1670 C.ar    1  UNL1       -0.0256
     31 C          -1.2190    0.8140   -5.1780 C.ar    1  UNL1        0.1369
     32 F          -0.6850   -0.3470   -4.7690 F       1  UNL1       -0.2047
     33 N           0.2540    1.4150   -2.3750 N.ar    1  UNL1       -0.2096
     34 H          -3.3690    2.8630   -0.9440 H       1  UNL1        0.0247
     35 H          -2.0380    2.3840    0.1260 H       1  UNL1        0.0247
     36 H          -1.7060    3.3480   -1.3200 H       1  UNL1        0.0247
     37 H          -2.4780    1.4220   -2.7580 H       1  UNL1        0.0507
     38 H          -2.8190    0.4920   -1.3270 H       1  UNL1        0.0507
     39 H           0.3730    0.1620    2.3260 H       1  UNL1        0.0631
     40 H          -0.9650   -0.7440    3.8940 H       1  UNL1        0.1493
     41 H          -0.8570   -1.2500    6.7030 H       1  UNL1        0.0498
     42 H          -0.9040    1.0790    7.5830 H       1  UNL1        0.0284
     43 H          -0.6210    1.7450    5.9140 H       1  UNL1        0.0284
     44 H          -3.0280   -0.0220    6.7850 H       1  UNL1        0.0284
     45 H          -2.7480    0.6540    5.1190 H       1  UNL1        0.0284
     46 H           2.6120   -3.1540    3.9120 H       1  UNL1        0.0625
     47 H           3.4160   -3.7040    1.6530 H       1  UNL1        0.0621
     48 H           3.2110   -3.5230   -0.6940 H       1  UNL1        0.0278
     49 H           3.6440   -1.8320   -0.9990 H       1  UNL1        0.0278
     50 H           2.0260   -2.4590   -1.4350 H       1  UNL1        0.0278
     51 H           2.9730    0.6920   -0.5410 H       1  UNL1        0.0663
     52 H          -2.8060    4.1210   -6.3880 H       1  UNL1        0.0646
     53 H          -3.5430    1.9550   -7.3830 H       1  UNL1        0.0619
     54 H          -2.5060   -0.1720   -6.5890 H       1  UNL1        0.0646
@<TRIPOS>BOND
     1     1     2    1
     2     1    34    1
     3     1    35    1
     4     1    36    1
     5     2     3    1
     6     2    37    1
     7     2    38    1
     8     3     4   ar
     9     3    33   ar
    10     4     5    2
    11     4     6   ar
    12     6     7    1
    13     6    20   ar
    14     7     8   ar
    15     7    18   ar
    16     8     9   ar
    17     8    39    1
    18     9    10    1
    19     9    16   ar
    20    10    11    2
    21    10    12   am
    22    12    13    1
    23    12    40    1
    24    13    14    1
    25    13    15    1
    26    13    41    1
    27    14    15    1
    28    14    42    1
    29    14    43    1
    30    15    44    1
    31    15    45    1
    32    16    17   ar
    33    16    46    1
    34    17    18   ar
    35    17    47    1
    36    18    19    1
    37    19    48    1
    38    19    49    1
    39    19    50    1
    40    20    21   ar
    41    20    51    1
    42    21    22   ar
    43    21    33   ar
    44    22    23   ar
    45    23    24   ar
    46    24    25    1
    47    24    33   ar
    48    25    26   ar
    49    25    31   ar
    50    26    27    1
    51    26    28   ar
    52    28    29   ar
    53    28    52    1
    54    29    30   ar
    55    29    53    1
    56    30    31   ar
    57    30    54    1
    58    31    32    1
@<TRIPOS>MOLECULE
AD3CC00161852-I00-C00
 75 78 0 0 0
SMALL
GASTEIGER

@<TRIPOS>ATOM
      1 N           0.3220    1.8720   -0.7000 N.3     1  UNL1       -0.3299
      2 C           1.1290    2.3150    0.4300 C.3     1  UNL1       -0.0050
      3 C           0.4790    2.0630    1.7960 C.3     1  UNL1       -0.0148
      4 C           0.3370    0.5830    2.1820 C.3     1  UNL1        0.1070
      5 N          -0.4090    0.5080    3.4720 N.3     1  UNL1       -0.3040
      6 C          -0.7910   -0.8670    3.8080 C.3     1  UNL1       -0.0003
      7 C          -1.8290   -0.8850    4.9360 C.3     1  UNL1       -0.0060
      8 C          -3.1520   -0.1750    4.6230 C.3     1  UNL1        0.0907
      9 O          -3.9710   -0.9210    3.7130 O.3     1  UNL1       -0.4917
     10 C          -3.7830   -0.7360    2.3730 C.ar    1  UNL1        0.1261
     11 C          -4.0730   -1.8470    1.5760 C.ar    1  UNL1        0.0175
     12 C          -3.8160   -1.8140    0.2080 C.ar    1  UNL1        0.1535
     13 F          -4.0210   -2.9230   -0.5190 F       1  UNL1       -0.2031
     14 C          -3.2730   -0.6760   -0.3830 C.ar    1  UNL1        0.1216
     15 N          -2.8780   -0.6820   -1.7510 N.ar    1  UNL1       -0.2590
     16 C          -1.5190   -0.7740   -2.1020 C.ar    1  UNL1        0.1147
     17 N          -0.5650   -1.0470   -1.1150 N.pl3   1  UNL1       -0.3435
     18 C          -1.1770   -0.5950   -3.4040 C.ar    1  UNL1        0.0607
     19 C           0.2730   -0.6650   -3.7860 C.2     1  UNL1        0.1991
     20 O           1.0370   -1.4900   -3.2930 O.2     1  UNL1       -0.2864
     21 C           0.7750    0.3210   -4.7590 C.ar    1  UNL1        0.0577
     22 C           0.5720    1.6920   -4.5520 C.ar    1  UNL1       -0.0454
     23 C           1.0720    2.6070   -5.4820 C.ar    1  UNL1       -0.0256
     24 C           1.7680    2.1460   -6.5970 C.ar    1  UNL1        0.1262
     25 F           2.2420    3.0290   -7.4860 F       1  UNL1       -0.2054
     26 C           1.9800    0.7890   -6.8050 C.ar    1  UNL1        0.0095
     27 C           1.4830   -0.1210   -5.8780 C.ar    1  UNL1        0.1369
     28 F           1.6650   -1.4300   -6.1030 F       1  UNL1       -0.2047
     29 C          -2.1900   -0.3840   -4.4170 C.ar    1  UNL1       -0.0425
     30 C          -3.4850   -0.3300   -4.0940 C.ar    1  UNL1        0.0041
     31 C          -3.9020   -0.4580   -2.6780 C.ar    1  UNL1        0.2573
     32 O          -5.0970   -0.3380   -2.4110 O.2     1  UNL1       -0.2673
     33 C          -3.0620    0.4550    0.4070 C.ar    1  UNL1        0.1535
     34 F          -2.5720    1.5800   -0.1370 F       1  UNL1       -0.2031
     35 C          -3.3280    0.4370    1.7750 C.ar    1  UNL1        0.0175
     36 C           1.7250   -0.0520    2.3250 C.2     1  UNL1        0.3246
     37 O           2.4690    0.1210    3.2830 O.2     1  UNL1       -0.2491
     38 O           2.0020   -0.8240    1.2380 O.3     1  UNL1       -0.4603
     39 C           3.2940   -1.4510    1.2330 C.3     1  UNL1        0.1031
     40 C           3.5690   -1.9670   -0.1740 C.3     1  UNL1       -0.0157
     41 C           2.7540   -3.2530   -0.2690 C.3     1  UNL1       -0.0496
     42 C           2.6220   -3.7750    1.1610 C.3     1  UNL1       -0.0496
     43 C           3.2810   -2.7310    2.0620 C.3     1  UNL1       -0.0157
     44 H           0.2280    0.8480   -0.6940 H       1  UNL1        0.1182
     45 H          -0.6400    2.2010   -0.5820 H       1  UNL1        0.1182
     46 H           2.1200    1.8530    0.3730 H       1  UNL1        0.0422
     47 H           1.2860    3.3950    0.3200 H       1  UNL1        0.0422
     48 H           1.0820    2.5820    2.5530 H       1  UNL1        0.0298
     49 H          -0.5090    2.5420    1.8080 H       1  UNL1        0.0298
     50 H          -0.2350    0.0510    1.4180 H       1  UNL1        0.0576
     51 H           0.2040    0.8710    4.2100 H       1  UNL1        0.1227
     52 H           0.0930   -1.4270    4.1350 H       1  UNL1        0.0425
     53 H          -1.1900   -1.3930    2.9350 H       1  UNL1        0.0425
     54 H          -1.3880   -0.4270    5.8300 H       1  UNL1        0.0310
     55 H          -2.0410   -1.9330    5.1810 H       1  UNL1        0.0310
     56 H          -3.0140    0.8700    4.3350 H       1  UNL1        0.0697
     57 H          -3.7280   -0.1370    5.5560 H       1  UNL1        0.0697
     58 H          -4.4570   -2.7590    2.0240 H       1  UNL1        0.0684
     59 H           0.3090   -1.3890   -1.5400 H       1  UNL1        0.1437
     60 H          -0.9110   -1.7670   -0.4840 H       1  UNL1        0.1437
     61 H           0.0550    2.0560   -3.6660 H       1  UNL1        0.0626
     62 H           0.9330    3.6750   -5.3390 H       1  UNL1        0.0646
     63 H           2.5220    0.4440   -7.6770 H       1  UNL1        0.0675
     64 H          -1.8930   -0.3030   -5.4580 H       1  UNL1        0.0627
     65 H          -4.2720   -0.1860   -4.8240 H       1  UNL1        0.0672
     66 H          -3.1360    1.3440    2.3360 H       1  UNL1        0.0684
     67 H           4.0660   -0.7400    1.5510 H       1  UNL1        0.0734
     68 H           4.6350   -2.2000   -0.2890 H       1  UNL1        0.0301
     69 H           3.2780   -1.2560   -0.9540 H       1  UNL1        0.0301
     70 H           3.2310   -3.9830   -0.9300 H       1  UNL1        0.0266
     71 H           1.7580   -3.0450   -0.6770 H       1  UNL1        0.0266
     72 H           1.5640   -3.8980    1.4190 H       1  UNL1        0.0266
     73 H           3.1050   -4.7520    1.2790 H       1  UNL1        0.0266
     74 H           2.7380   -2.6350    3.0070 H       1  UNL1        0.0301
     75 H           4.3100   -3.0410    2.2850 H       1  UNL1        0.0301
@<TRIPOS>BOND
     1     1     2    1
     2     1    44    1
     3     1    45    1
     4     2     3    1
     5     2    46    1
     6     2    47    1
     7     3     4    1
     8     3    48    1
     9     3    49    1
    10     4     5    1
    11     4    36    1
    12     4    50    1
    13     5     6    1
    14     5    51    1
    15     6     7    1
    16     6    52    1
    17     6    53    1
    18     7     8    1
    19     7    54    1
    20     7    55    1
    21     8     9    1
    22     8    56    1
    23     8    57    1
    24     9    10    1
    25    10    11   ar
    26    10    35   ar
    27    11    12   ar
    28    11    58    1
    29    12    13    1
    30    12    14   ar
    31    14    15    1
    32    14    33   ar
    33    15    16   ar
    34    15    31   ar
    35    16    17    1
    36    16    18   ar
    37    17    59    1
    38    17    60    1
    39    18    19    1
    40    18    29   ar
    41    19    20    2
    42    19    21    1
    43    21    22   ar
    44    21    27   ar
    45    22    23   ar
    46    22    61    1
    47    23    24   ar
    48    23    62    1
    49    24    25    1
    50    24    26   ar
    51    26    27   ar
    52    26    63    1
    53    27    28    1
    54    29    30   ar
    55    29    64    1
    56    30    31   ar
    57    30    65    1
    58    31    32    2
    59    33    34    1
    60    33    35   ar
    61    35    66    1
    62    36    37    2
    63    36    38    1
    64    38    39    1
    65    39    40    1
    66    39    43    1
    67    39    67    1
    68    40    41    1
    69    40    68    1
    70    40    69    1
    71    41    42    1
    72    41    70    1
    73    41    71    1
    74    42    43    1
    75    42    72    1
    76    42    73    1
    77    43    74    1
    78    43    75    1
@<TRIPOS>MOLECULE
AD3CC00167520-I00-C02
 56 60 0 0 0
SMALL
GASTEIGER

@<TRIPOS>ATOM
      1 C           1.1480   -3.8060    2.9310 C.3     1  UNL1       -0.0223
      2 C           0.4840   -2.4620    2.9500 C.ar    1  UNL1        0.0390
      3 C          -0.5550   -2.2050    3.8370 C.ar    1  UNL1       -0.0406
      4 C          -1.1480   -0.9470    3.8250 C.ar    1  UNL1       -0.0580
      5 C          -0.6800    0.0210    2.9420 C.ar    1  UNL1       -0.0342
      6 C           0.3760   -0.3040    2.1020 C.ar    1  UNL1        0.0895
      7 C           0.9490    0.6270    1.1440 C.ar    1  UNL1        0.0926
      8 N           1.4650    0.1890   -0.0600 N.ar    1  UNL1       -0.3389
      9 C           1.8360    1.2840   -0.8010 C.ar    1  UNL1        0.1254
     10 C           2.3390    1.1700   -2.2100 C.3     1  UNL1        0.0672
     11 N           1.3380    1.4840   -3.2500 N.pl3   1  UNL1       -0.3367
     12 C           0.2200    0.6300   -3.2980 C.ar    1  UNL1        0.0293
     13 C          -1.0610    1.1690   -3.4680 C.ar    1  UNL1       -0.0407
     14 C          -2.1930    0.3480   -3.4600 C.ar    1  UNL1       -0.0582
     15 C          -2.0540   -1.0260   -3.2800 C.ar    1  UNL1       -0.0392
     16 C          -0.7820   -1.5730   -3.1520 C.ar    1  UNL1        0.0494
     17 N          -0.6620   -2.9780   -2.9360 N.pl3   1  UNL1       -0.2208
     18 S          -0.0080   -3.4770   -1.4510 S.O2    1  UNL1        0.0403
     19 C          -1.4170   -3.3240   -0.3740 C.3     1  UNL1        0.0736
     20 O           0.2830   -4.8860   -1.6080 O.2     1  UNL1       -0.1555
     21 O           1.0250   -2.5490   -1.0380 O.2     1  UNL1       -0.1555
     22 C           0.3470   -0.7600   -3.2360 C.ar    1  UNL1       -0.0185
     23 N           1.6450    2.3960   -0.1180 N.ar    1  UNL1       -0.2302
     24 C           1.1400    1.9970    1.0980 C.ar    1  UNL1        0.0998
     25 C           0.8920    2.9860    2.1040 C.ar    1  UNL1        0.0208
     26 C           0.3080    4.2820    1.7270 C.ar    1  UNL1       -0.0475
     27 C           0.0570    5.2530    2.6250 C.ar    1  UNL1       -0.0167
     28 C           0.3690    5.0360    3.9920 C.ar    1  UNL1        0.1557
     29 N           0.2230    5.7860    5.0610 N.ar    1  UNL1       -0.2149
     30 C           0.7280    4.9980    6.0510 C.ar    1  UNL1        0.1390
     31 N           1.1720    3.7980    5.6740 N.ar    1  UNL1       -0.1535
     32 N           0.9480    3.8130    4.3360 N.ar    1  UNL1       -0.2198
     33 C           1.2070    2.8120    3.4060 C.ar    1  UNL1        0.0407
     34 N           0.9420   -1.5330    2.0780 N.ar    1  UNL1       -0.2503
     35 H           1.9230   -3.8460    2.1590 H       1  UNL1        0.0292
     36 H           0.4130   -4.5880    2.7150 H       1  UNL1        0.0292
     37 H           1.6180   -4.0100    3.8980 H       1  UNL1        0.0292
     38 H          -0.9010   -2.9690    4.5270 H       1  UNL1        0.0635
     39 H          -1.9670   -0.7200    4.5020 H       1  UNL1        0.0619
     40 H          -1.1440    1.0000    2.9160 H       1  UNL1        0.0639
     41 H           1.4900   -0.7850   -0.3540 H       1  UNL1        0.1672
     42 H           3.1560    1.8930   -2.3270 H       1  UNL1        0.0541
     43 H           2.7990    0.1900   -2.3840 H       1  UNL1        0.0541
     44 H           1.0410    2.4510   -3.1190 H       1  UNL1        0.1465
     45 H          -1.1930    2.2430   -3.5810 H       1  UNL1        0.0636
     46 H          -3.1810    0.7870   -3.5760 H       1  UNL1        0.0619
     47 H          -2.9360   -1.6600   -3.2470 H       1  UNL1        0.0636
     48 H          -0.2140   -3.4920   -3.6980 H       1  UNL1        0.1733
     49 H          -1.6780   -2.2690   -0.2720 H       1  UNL1        0.0482
     50 H          -2.2460   -3.8980   -0.7910 H       1  UNL1        0.0482
     51 H          -1.1410   -3.7330    0.6000 H       1  UNL1        0.0482
     52 H           1.3320   -1.2150   -3.2020 H       1  UNL1        0.0655
     53 H           0.0900    4.4410    0.6730 H       1  UNL1        0.0626
     54 H          -0.3690    6.2050    2.3290 H       1  UNL1        0.0655
     55 H           0.7710    5.3090    7.0870 H       1  UNL1        0.1066
     56 H           1.6700    1.9180    3.8020 H       1  UNL1        0.0837
@<TRIPOS>BOND
     1     1     2    1
     2     1    35    1
     3     1    36    1
     4     1    37    1
     5     2     3   ar
     6     2    34   ar
     7     3     4   ar
     8     3    38    1
     9     4     5   ar
    10     4    39    1
    11     5     6   ar
    12     5    40    1
    13     6     7    1
    14     6    34   ar
    15     7     8   ar
    16     7    24   ar
    17     8     9   ar
    18     8    41    1
    19     9    10    1
    20     9    23   ar
    21    10    11    1
    22    10    42    1
    23    10    43    1
    24    11    12    1
    25    11    44    1
    26    12    13   ar
    27    12    22   ar
    28    13    14   ar
    29    13    45    1
    30    14    15   ar
    31    14    46    1
    32    15    16   ar
    33    15    47    1
    34    16    17    1
    35    16    22   ar
    36    18    17    1
    37    17    48    1
    38    18    19    1
    39    18    20    2
    40    18    21    2
    41    19    49    1
    42    19    50    1
    43    19    51    1
    44    22    52    1
    45    23    24   ar
    46    24    25    1
    47    25    26   ar
    48    25    33   ar
    49    26    27   ar
    50    26    53    1
    51    27    28   ar
    52    27    54    1
    53    28    29   ar
    54    28    32   ar
    55    29    30   ar
    56    30    31   ar
    57    30    55    1
    58    31    32   ar
    59    32    33   ar
    60    33    56    1
@<TRIPOS>MOLECULE
AD3CC00172203-I00-C00
 48 51 0 0 0
SMALL
GASTEIGER

@<TRIPOS>ATOM
      1 O          -2.7310    0.4760   -2.7380 O.2     1  UNL1       -0.2866
      2 C          -1.7410    0.0400   -2.1500 C.2     1  UNL1        0.1937
      3 C          -1.4660    0.4880   -0.7510 C.ar    1  UNL1        0.0256
      4 C          -2.0880    1.6980   -0.3880 C.ar    1  UNL1       -0.0489
      5 C          -1.8890    2.2770    0.8680 C.ar    1  UNL1       -0.0399
      6 C          -1.0620    1.6690    1.8100 C.ar    1  UNL1        0.0317
      7 N          -0.8450    2.3160    3.0370 N.pl3   1  UNL1       -0.3122
      8 C           0.1720    2.2010    4.0040 C.ar    1  UNL1        0.0672
      9 C           1.4860    1.8330    3.6890 C.ar    1  UNL1       -0.0350
     10 C           2.4530    1.7170    4.6930 C.ar    1  UNL1       -0.0245
     11 C           2.1090    1.9710    6.0170 C.ar    1  UNL1        0.1262
     12 F           3.0400    1.8590    6.9720 F       1  UNL1       -0.2054
     13 C           0.8200    2.3470    6.3600 C.ar    1  UNL1        0.0106
     14 C          -0.1320    2.4590    5.3530 C.ar    1  UNL1        0.1471
     15 F          -1.3810    2.8260    5.6840 F       1  UNL1       -0.2035
     16 C          -0.4500    0.4630    1.4510 C.ar    1  UNL1       -0.0367
     17 C          -0.6540   -0.1600    0.1930 C.ar    1  UNL1       -0.0345
     18 C           0.0490   -1.4830   -0.0020 C.3     1  UNL1       -0.0229
     19 C          -0.5990   -2.4450   -0.9870 C.3     1  UNL1       -0.0229
     20 C          -0.3060   -2.0220   -2.3950 C.ar    1  UNL1       -0.0328
     21 C           0.5150   -2.8170   -3.2130 C.ar    1  UNL1       -0.0161
     22 C           0.7820   -2.4630   -4.5390 C.ar    1  UNL1        0.1209
     23 O           1.6140   -3.3140   -5.2080 O.3     1  UNL1       -0.4897
     24 C           1.4710   -3.4060   -6.6320 C.3     1  UNL1        0.1126
     25 C           2.7440   -2.8960   -7.3020 C.3     1  UNL1        0.0783
     26 O           2.9210   -1.5020   -7.0680 O.3     1  UNL1       -0.3917
     27 C           0.2480   -1.2840   -5.0510 C.ar    1  UNL1       -0.0192
     28 C          -0.5700   -0.4850   -4.2480 C.ar    1  UNL1       -0.0472
     29 C          -0.8390   -0.8430   -2.9180 C.ar    1  UNL1        0.0257
     30 H          -2.7300    2.2190   -1.0990 H       1  UNL1        0.0625
     31 H          -2.3740    3.2250    1.0910 H       1  UNL1        0.0636
     32 H          -1.6710    2.7940    3.3910 H       1  UNL1        0.1522
     33 H           1.7800    1.6650    2.6570 H       1  UNL1        0.0638
     34 H           3.4730    1.4380    4.4480 H       1  UNL1        0.0647
     35 H           0.5580    2.5490    7.3910 H       1  UNL1        0.0675
     36 H           0.1740   -0.0450    2.1840 H       1  UNL1        0.0639
     37 H           0.0720   -2.0000    0.9670 H       1  UNL1        0.0317
     38 H           1.0930   -1.2830   -0.2790 H       1  UNL1        0.0317
     39 H          -1.6820   -2.5240   -0.8310 H       1  UNL1        0.0317
     40 H          -0.1930   -3.4500   -0.8150 H       1  UNL1        0.0317
     41 H           0.9480   -3.7370   -2.8230 H       1  UNL1        0.0657
     42 H           0.5820   -2.8930   -7.0140 H       1  UNL1        0.0720
     43 H           1.3480   -4.4690   -6.8680 H       1  UNL1        0.0720
     44 H           2.6940   -3.0540   -8.3830 H       1  UNL1        0.0591
     45 H           3.6260   -3.4140   -6.9110 H       1  UNL1        0.0591
     46 H           2.9910   -1.3970   -6.1000 H       1  UNL1        0.2095
     47 H           0.4570   -0.9490   -6.0630 H       1  UNL1        0.0654
     48 H          -0.9980    0.4260   -4.6630 H       1  UNL1        0.0626
@<TRIPOS>BOND
     1     1     2    2
     2     2     3    1
     3     2    29    1
     4     3     4   ar
     5     3    17   ar
     6     4     5   ar
     7     4    30    1
     8     5     6   ar
     9     5    31    1
    10     6     7    1
    11     6    16   ar
    12     7     8    1
    13     7    32    1
    14     8     9   ar
    15     8    14   ar
    16     9    10   ar
    17     9    33    1
    18    10    11   ar
    19    10    34    1
    20    11    12    1
    21    11    13   ar
    22    13    14   ar
    23    13    35    1
    24    14    15    1
    25    16    17   ar
    26    16    36    1
    27    17    18    1
    28    18    19    1
    29    18    37    1
    30    18    38    1
    31    19    20    1
    32    19    39    1
    33    19    40    1
    34    20    21   ar
    35    20    29   ar
    36    21    22   ar
    37    21    41    1
    38    22    23    1
    39    22    27   ar
    40    23    24    1
    41    24    25    1
    42    24    42    1
    43    24    43    1
    44    25    26    1
    45    25    44    1
    46    25    45    1
    47    26    46    1
    48    27    28   ar
    49    27    47    1
    50    28    29   ar
    51    28    48    1
@<TRIPOS>MOLECULE
AD3CC00176119-I00-C00
 48 51 0 0 0
SMALL
GASTEIGER

@<TRIPOS>ATOM
      1 C           2.1800    2.1430    0.3470 C.3     1  UNL1       -0.0380
      2 C           2.2680    0.9640   -0.5870 C.ar    1  UNL1       -0.0292
      3 C           3.4860    0.7320   -1.2470 C.ar    1  UNL1       -0.0564
      4 C           3.6280   -0.3390   -2.1270 C.ar    1  UNL1       -0.0493
      5 C           2.5540   -1.1980   -2.3610 C.ar    1  UNL1        0.0385
      6 C           2.7530   -2.3340   -3.3050 C.2     1  UNL1        0.2443
      7 O           3.8840   -2.7630   -3.5120 O.2     1  UNL1       -0.2702
      8 N           1.6210   -2.8230   -3.9320 N.am    1  UNL1       -0.3085
      9 C           1.6800   -3.8960   -4.8720 C.3     1  UNL1        0.0235
     10 C           1.3650   -5.3010   -4.4410 C.3     1  UNL1       -0.0328
     11 C           0.4200   -4.5680   -5.3470 C.3     1  UNL1       -0.0328
     12 C           1.3410   -0.9880   -1.6900 C.ar    1  UNL1       -0.0281
     13 C           1.1780    0.0940   -0.8140 C.ar    1  UNL1        0.0373
     14 N          -0.0380    0.3410   -0.1360 N.am    1  UNL1       -0.2808
     15 C          -1.2600   -0.2990   -0.2810 C.2     1  UNL1        0.2549
     16 O          -1.4780   -1.2030   -1.0830 O.2     1  UNL1       -0.2693
     17 C          -2.3170    0.1980    0.6010 C.ar    1  UNL1        0.0747
     18 C          -3.6150   -0.2710    0.6740 C.ar    1  UNL1       -0.0419
     19 C          -4.3990    0.4250    1.6390 C.ar    1  UNL1       -0.0462
     20 C          -3.6870    1.4220    2.2780 C.ar    1  UNL1        0.0201
     21 C          -4.1380    2.3340    3.3360 C.ar    1  UNL1       -0.0112
     22 C          -4.8480    1.8310    4.4370 C.ar    1  UNL1       -0.0523
     23 C          -5.2950    2.6840    5.4520 C.ar    1  UNL1       -0.0438
     24 C          -5.0410    4.0560    5.3770 C.ar    1  UNL1        0.0518
     25 C          -5.4980    4.9320    6.4150 C.1     1  UNL1        0.0992
     26 N          -5.8680    5.6420    7.2560 N.1     1  UNL1       -0.1909
     27 C          -4.3410    4.5700    4.2810 C.ar    1  UNL1       -0.0438
     28 C          -3.8950    3.7140    3.2680 C.ar    1  UNL1       -0.0523
     29 S          -2.0720    1.4850    1.7060 S.2     1  UNL1       -0.0837
     30 H           1.3920    2.8290    0.0200 H       1  UNL1        0.0278
     31 H           3.1160    2.7110    0.3720 H       1  UNL1        0.0278
     32 H           1.9740    1.8040    1.3680 H       1  UNL1        0.0278
     33 H           4.3400    1.3870   -1.0810 H       1  UNL1        0.0621
     34 H           4.5810   -0.5030   -2.6280 H       1  UNL1        0.0625
     35 H           0.7380   -2.3380   -3.8250 H       1  UNL1        0.1493
     36 H           2.4750   -3.7770   -5.6060 H       1  UNL1        0.0498
     37 H           1.0670   -5.4660   -3.4120 H       1  UNL1        0.0284
     38 H           1.9670   -6.0990   -4.8610 H       1  UNL1        0.0284
     39 H          -0.5300   -4.2530   -4.9340 H       1  UNL1        0.0284
     40 H           0.3740   -4.8750   -6.3860 H       1  UNL1        0.0284
     41 H           0.5420   -1.7060   -1.8280 H       1  UNL1        0.0644
     42 H          -0.0430    1.1040    0.5280 H       1  UNL1        0.1552
     43 H          -3.9820   -1.0850    0.0570 H       1  UNL1        0.0631
     44 H          -5.4400    0.2070    1.8450 H       1  UNL1        0.0629
     45 H          -5.0500    0.7640    4.5210 H       1  UNL1        0.0624
     46 H          -5.8380    2.2680    6.2980 H       1  UNL1        0.0631
     47 H          -4.1410    5.6370    4.2050 H       1  UNL1        0.0631
     48 H          -3.3650    4.1410    2.4190 H       1  UNL1        0.0624
@<TRIPOS>BOND
     1     1     2    1
     2     1    30    1
     3     1    31    1
     4     1    32    1
     5     2     3   ar
     6     2    13   ar
     7     3     4   ar
     8     3    33    1
     9     4     5   ar
    10     4    34    1
    11     5     6    1
    12     5    12   ar
    13     6     7    2
    14     6     8   am
    15     8     9    1
    16     8    35    1
    17     9    10    1
    18     9    11    1
    19     9    36    1
    20    10    11    1
    21    10    37    1
    22    10    38    1
    23    11    39    1
    24    11    40    1
    25    12    13   ar
    26    12    41    1
    27    13    14    1
    28    14    15   am
    29    14    42    1
    30    15    16    2
    31    15    17    1
    32    17    18   ar
    33    17    29   ar
    34    18    19   ar
    35    18    43    1
    36    19    20   ar
    37    19    44    1
    38    20    21    1
    39    20    29   ar
    40    21    22   ar
    41    21    28   ar
    42    22    23   ar
    43    22    45    1
    44    23    24   ar
    45    23    46    1
    46    24    25    1
    47    24    27   ar
    48    25    26    3
    49    27    28   ar
    50    27    47    1
    51    28    48    1
@<TRIPOS>MOLECULE
AD3CC00185547-I00-C01
 48 52 0 0 0
SMALL
GASTEIGER

@<TRIPOS>ATOM
      1 C          -2.0150   -1.5890   -4.9110 C.3     1  UNL1       -0.0223
      2 C          -2.0440   -2.1670   -3.5280 C.ar    1  UNL1        0.0389
      3 C          -2.8360   -3.2730   -3.2470 C.ar    1  UNL1       -0.0406
      4 C          -2.8430   -3.7790   -1.9520 C.ar    1  UNL1       -0.0580
      5 C          -2.0600   -3.1690   -0.9760 C.ar    1  UNL1       -0.0351
      6 C          -1.2890   -2.0670   -1.3320 C.ar    1  UNL1        0.0800
      7 C          -0.4390   -1.3430   -0.3850 C.ar    1  UNL1        0.0667
      8 S           0.5030   -2.2040    0.7730 S.2     1  UNL1       -0.0503
      9 C           1.1820   -0.7330    1.3410 C.ar    1  UNL1        0.1596
     10 N           2.0860   -0.7470    2.3430 N.pl3   1  UNL1       -0.3193
     11 C           2.9040    0.4310    2.5440 C.3     1  UNL1        0.0362
     12 C           3.8130    0.2040    3.7300 C.ar    1  UNL1       -0.0291
     13 C           3.3080    0.3050    5.0350 C.ar    1  UNL1       -0.0570
     14 C           4.1350    0.0790    6.1370 C.ar    1  UNL1       -0.0602
     15 C           5.4750   -0.2570    5.9460 C.ar    1  UNL1       -0.0443
     16 C           5.9910   -0.3710    4.6510 C.ar    1  UNL1        0.0521
     17 C           7.3670   -0.7250    4.4550 C.1     1  UNL1        0.0992
     18 N           8.4790   -1.0140    4.2930 N.1     1  UNL1       -0.1909
     19 C           5.1600   -0.1440    3.5470 C.ar    1  UNL1       -0.0397
     20 N           0.7570    0.3450    0.7300 N.ar    1  UNL1       -0.2242
     21 C          -0.1710    0.0110   -0.2450 C.ar    1  UNL1        0.0909
     22 C          -0.7420    1.0950   -0.9970 C.ar    1  UNL1        0.0199
     23 C          -2.1920    1.2030   -1.2200 C.ar    1  UNL1       -0.0476
     24 C          -2.7420    2.2130   -1.9200 C.ar    1  UNL1       -0.0167
     25 C          -1.9080    3.2260   -2.4600 C.ar    1  UNL1        0.1557
     26 N          -2.1710    4.3010   -3.1680 N.ar    1  UNL1       -0.2149
     27 C          -0.9360    4.8460   -3.3530 C.ar    1  UNL1        0.1390
     28 N           0.0840    4.1840   -2.8070 N.ar    1  UNL1       -0.1535
     29 N          -0.5350    3.1260   -2.2240 N.ar    1  UNL1       -0.2198
     30 C           0.0300    2.0810   -1.5030 C.ar    1  UNL1        0.0407
     31 N          -1.2770   -1.5640   -2.5890 N.ar    1  UNL1       -0.2513
     32 H          -1.3460   -0.7230   -4.9580 H       1  UNL1        0.0292
     33 H          -1.6560   -2.3360   -5.6260 H       1  UNL1        0.0292
     34 H          -3.0170   -1.2610   -5.2050 H       1  UNL1        0.0292
     35 H          -3.4410   -3.7360   -4.0210 H       1  UNL1        0.0635
     36 H          -3.4550   -4.6410   -1.7030 H       1  UNL1        0.0619
     37 H          -2.0690   -3.5510    0.0390 H       1  UNL1        0.0639
     38 H           2.5440   -1.6310    2.5340 H       1  UNL1        0.1483
     39 H           3.5050    0.6400    1.6500 H       1  UNL1        0.0511
     40 H           2.2850    1.3170    2.7340 H       1  UNL1        0.0511
     41 H           2.2610    0.5570    5.1950 H       1  UNL1        0.0621
     42 H           3.7320    0.1630    7.1430 H       1  UNL1        0.0618
     43 H           6.1110   -0.4310    6.8120 H       1  UNL1        0.0630
     44 H           5.5630   -0.2380    2.5390 H       1  UNL1        0.0634
     45 H          -2.8320    0.4330   -0.7990 H       1  UNL1        0.0626
     46 H          -3.8120    2.2780   -2.0800 H       1  UNL1        0.0655
     47 H          -0.7740    5.7620   -3.9060 H       1  UNL1        0.1066
     48 H           1.1050    2.1160   -1.3870 H       1  UNL1        0.0837
@<TRIPOS>BOND
     1     1     2    1
     2     1    32    1
     3     1    33    1
     4     1    34    1
     5     2     3   ar
     6     2    31   ar
     7     3     4   ar
     8     3    35    1
     9     4     5   ar
    10     4    36    1
    11     5     6   ar
    12     5    37    1
    13     6     7    1
    14     6    31   ar
    15     7     8   ar
    16     7    21   ar
    17     8     9   ar
    18     9    10    1
    19     9    20   ar
    20    10    11    1
    21    10    38    1
    22    11    12    1
    23    11    39    1
    24    11    40    1
    25    12    13   ar
    26    12    19   ar
    27    13    14   ar
    28    13    41    1
    29    14    15   ar
    30    14    42    1
    31    15    16   ar
    32    15    43    1
    33    16    17    1
    34    16    19   ar
    35    17    18    3
    36    19    44    1
    37    20    21   ar
    38    21    22    1
    39    22    23   ar
    40    22    30   ar
    41    23    24   ar
    42    23    45    1
    43    24    25   ar
    44    24    46    1
    45    25    26   ar
    46    25    29   ar
    47    26    27   ar
    48    27    28   ar
    49    27    47    1
    50    28    29   ar
    51    29    30   ar
    52    30    48    1
@<TRIPOS>MOLECULE
AD3CC00185922-I00-C00
 57 61 0 0 0
SMALL
GASTEIGER

@<TRIPOS>ATOM
      1 C           2.5360   -1.1570    2.5980 C.3     1  UNL1       -0.0377
      2 C           2.4540    0.3450    2.6520 C.ar    1  UNL1       -0.0264
      3 C           2.5450    0.9480    3.9180 C.ar    1  UNL1       -0.0551
      4 C           2.5540    2.3360    4.0570 C.ar    1  UNL1       -0.0401
      5 C           2.4720    3.1610    2.9350 C.ar    1  UNL1        0.0357
      6 N           2.5000    4.5520    3.1600 N.am    1  UNL1       -0.2788
      7 C           2.4860    5.5730    2.2230 C.2     1  UNL1        0.2863
      8 O           2.4660    5.4140    1.0070 O.2     1  UNL1       -0.2664
      9 C           2.5120    6.8940    2.8120 C.ar    1  UNL1        0.2217
     10 C           2.5060    8.1510    2.2500 C.ar    1  UNL1        0.0098
     11 C           2.5430    9.0240    3.3490 C.ar    1  UNL1        0.0708
     12 N           2.5700    8.3650    4.5100 N.ar    1  UNL1       -0.0859
     13 O           2.5490    7.0230    4.1710 O.2     1  UNL1       -0.3500
     14 C           2.3540    2.5700    1.6750 C.ar    1  UNL1       -0.0162
     15 C           2.3210    1.1680    1.5140 C.ar    1  UNL1        0.0555
     16 N           2.1680    0.6350    0.1910 N.ar    1  UNL1       -0.2667
     17 C           2.9120    1.1660   -0.8440 C.ar    1  UNL1        0.1039
     18 N           2.8480    0.8010   -2.0820 N.ar    1  UNL1       -0.2366
     19 C           1.9520   -0.2230   -2.4060 C.ar    1  UNL1        0.0780
     20 C           1.8990   -0.6860   -3.7180 C.ar    1  UNL1       -0.0338
     21 C           1.0140   -1.7110   -4.0810 C.ar    1  UNL1       -0.0386
     22 C           0.1460   -2.2970   -3.1480 C.ar    1  UNL1        0.0306
     23 N          -0.7460   -3.3330   -3.4650 N.pl3   1  UNL1       -0.3274
     24 C          -0.5840   -4.0270   -4.7610 C.3     1  UNL1        0.0250
     25 C          -1.4850   -5.2820   -4.8250 C.3     1  UNL1        0.0144
     26 N          -2.9120   -4.9670   -4.5970 N.3     1  UNL1       -0.3024
     27 C          -3.7200   -6.1840   -4.6270 C.3     1  UNL1       -0.0126
     28 C          -3.0480   -4.2830   -3.2920 C.3     1  UNL1        0.0144
     29 C          -2.1690   -3.0140   -3.1810 C.3     1  UNL1        0.0250
     30 C           0.2210   -1.8280   -1.8270 C.ar    1  UNL1       -0.0263
     31 C           1.1100   -0.8040   -1.4660 C.ar    1  UNL1        0.0670
     32 C           1.1720   -0.3080   -0.0760 C.ar    1  UNL1        0.2661
     33 O           0.3260   -0.7040    0.7230 O.2     1  UNL1       -0.2666
     34 H           3.2180   -1.5300    3.3710 H       1  UNL1        0.0278
     35 H           1.5510   -1.6020    2.7710 H       1  UNL1        0.0278
     36 H           2.9390   -1.5100    1.6440 H       1  UNL1        0.0278
     37 H           2.6250    0.3300    4.8110 H       1  UNL1        0.0621
     38 H           2.6340    2.7560    5.0570 H       1  UNL1        0.0636
     39 H           2.5500    4.8500    4.1280 H       1  UNL1        0.1552
     40 H           2.4800    8.3870    1.1960 H       1  UNL1        0.0673
     41 H           2.5520   10.1050    3.3600 H       1  UNL1        0.0864
     42 H           2.2270    3.1940    0.7960 H       1  UNL1        0.0657
     43 H           3.6330    1.9470   -0.5550 H       1  UNL1        0.1033
     44 H           2.5520   -0.2450   -4.4670 H       1  UNL1        0.0639
     45 H           1.0150   -2.0220   -5.1210 H       1  UNL1        0.0637
     46 H           0.4550   -4.3520   -4.8900 H       1  UNL1        0.0476
     47 H          -0.8440   -3.3540   -5.5890 H       1  UNL1        0.0476
     48 H          -1.3650   -5.7390   -5.8150 H       1  UNL1        0.0442
     49 H          -1.1330   -6.0110   -4.0820 H       1  UNL1        0.0442
     50 H          -3.4210   -6.9020   -3.8550 H       1  UNL1        0.0391
     51 H          -4.7790   -5.9440   -4.4830 H       1  UNL1        0.0391
     52 H          -3.6380   -6.6740   -5.6030 H       1  UNL1        0.0391
     53 H          -4.0940   -3.9880   -3.1440 H       1  UNL1        0.0442
     54 H          -2.7810   -4.9680   -2.4760 H       1  UNL1        0.0442
     55 H          -2.5240   -2.2560   -3.8920 H       1  UNL1        0.0476
     56 H          -2.3030   -2.6090   -2.1720 H       1  UNL1        0.0476
     57 H          -0.3990   -2.2790   -1.0570 H       1  UNL1        0.0644
@<TRIPOS>BOND
     1     1     2    1
     2     1    34    1
     3     1    35    1
     4     1    36    1
     5     2     3   ar
     6     2    15   ar
     7     3     4   ar
     8     3    37    1
     9     4     5   ar
    10     4    38    1
    11     5     6    1
    12     5    14   ar
    13     6     7   am
    14     6    39    1
    15     7     8    2
    16     7     9    1
    17     9    10   ar
    18     9    13   ar
    19    10    11   ar
    20    10    40    1
    21    11    12   ar
    22    11    41    1
    23    12    13   ar
    24    14    15   ar
    25    14    42    1
    26    15    16    1
    27    16    17   ar
    28    16    32   ar
    29    17    18   ar
    30    17    43    1
    31    18    19   ar
    32    19    20   ar
    33    19    31   ar
    34    20    21   ar
    35    20    44    1
    36    21    22   ar
    37    21    45    1
    38    22    23    1
    39    22    30   ar
    40    23    24    1
    41    23    29    1
    42    24    25    1
    43    24    46    1
    44    24    47    1
    45    25    26    1
    46    25    48    1
    47    25    49    1
    48    26    27    1
    49    26    28    1
    50    27    50    1
    51    27    51    1
    52    27    52    1
    53    28    29    1
    54    28    53    1
    55    28    54    1
    56    29    55    1
    57    29    56    1
    58    30    31   ar
    59    30    57    1
    60    31    32   ar
    61    32    33    2
@<TRIPOS>MOLECULE
AD3CC00185986-I00-C00
 58 61 0 0 0
SMALL
GASTEIGER

@<TRIPOS>ATOM
      1 C           1.1050   -4.4000   -1.1060 C.3     1  UNL1       -0.0380
      2 C           0.9340   -3.9820    0.3300 C.ar    1  UNL1       -0.0292
      3 C           0.9250   -4.9840    1.3160 C.ar    1  UNL1       -0.0565
      4 C           0.7660   -4.6610    2.6630 C.ar    1  UNL1       -0.0536
      5 C           0.6190   -3.3290    3.0490 C.ar    1  UNL1       -0.0127
      6 C           0.4710   -2.9910    4.4530 C.ar    1  UNL1        0.0254
      7 C           1.3030   -3.3000    5.5630 C.ar    1  UNL1        0.0679
      8 C           2.5830   -4.0510    5.5740 C.3     1  UNL1       -0.0200
      9 N           0.8060   -2.8110    6.7050 N.ar    1  UNL1       -0.1759
     10 N          -0.3140   -2.1700    6.3280 N.ar    1  UNL1       -0.2708
     11 C          -1.0950   -1.4830    7.3300 C.3     1  UNL1        0.0305
     12 C          -0.5850   -2.2710    4.9870 C.ar    1  UNL1        0.0438
     13 C          -1.7950   -1.6770    4.3590 C.3     1  UNL1       -0.0221
     14 C           0.6310   -2.3230    2.0720 C.ar    1  UNL1       -0.0324
     15 C           0.7740   -2.6320    0.7130 C.ar    1  UNL1        0.0372
     16 N           0.7860   -1.6320   -0.2900 N.am    1  UNL1       -0.2813
     17 C           0.4860   -0.2890   -0.1470 C.2     1  UNL1        0.2483
     18 O           0.0590    0.2720    0.8550 O.2     1  UNL1       -0.2699
     19 C           0.6620    0.5230   -1.3850 C.ar    1  UNL1        0.0372
     20 C          -0.2280    1.5740   -1.6310 C.ar    1  UNL1       -0.0462
     21 C          -0.0980    2.3590   -2.7830 C.ar    1  UNL1       -0.0192
     22 C           0.9310    2.1040   -3.6900 C.ar    1  UNL1        0.1211
     23 O           1.1750    2.7900   -4.8470 O.3     1  UNL1       -0.4859
     24 C           0.2910    3.8710   -5.1610 C.3     1  UNL1        0.1313
     25 C           0.7130    4.5230   -6.4600 C.ar    1  UNL1        0.0784
     26 C           2.0460    4.8680   -6.6800 C.ar    1  UNL1       -0.0370
     27 C           2.3930    5.4950   -7.8740 C.ar    1  UNL1       -0.0585
     28 C           1.4050    5.7670   -8.8120 C.ar    1  UNL1       -0.0436
     29 C           0.1040    5.4020   -8.5140 C.ar    1  UNL1        0.0280
     30 N          -0.2640    4.7960   -7.3640 N.ar    1  UNL1       -0.2565
     31 C           1.8310    1.0650   -3.4320 C.ar    1  UNL1       -0.0192
     32 C           1.7050    0.2770   -2.2850 C.ar    1  UNL1       -0.0462
     33 H           1.2060   -5.4870   -1.2020 H       1  UNL1        0.0278
     34 H           0.2330   -4.1000   -1.6950 H       1  UNL1        0.0278
     35 H           2.0090   -3.9500   -1.5280 H       1  UNL1        0.0278
     36 H           1.0370   -6.0310    1.0410 H       1  UNL1        0.0621
     37 H           0.7490   -5.4560    3.4050 H       1  UNL1        0.0624
     38 H           2.3910   -5.1280    5.5260 H       1  UNL1        0.0293
     39 H           3.2070   -3.7710    4.7190 H       1  UNL1        0.0293
     40 H           3.1570   -3.8480    6.4840 H       1  UNL1        0.0293
     41 H          -1.9730   -2.0930    7.5550 H       1  UNL1        0.0473
     42 H          -1.3920   -0.5070    6.9390 H       1  UNL1        0.0473
     43 H          -0.4910   -1.3450    8.2310 H       1  UNL1        0.0473
     44 H          -1.6280   -0.6180    4.1420 H       1  UNL1        0.0293
     45 H          -2.0480   -2.1830    3.4220 H       1  UNL1        0.0293
     46 H          -2.6670   -1.7630    5.0150 H       1  UNL1        0.0293
     47 H           0.5430   -1.2930    2.4030 H       1  UNL1        0.0642
     48 H           0.9410   -1.9550   -1.2350 H       1  UNL1        0.1551
     49 H          -1.0300    1.7830   -0.9250 H       1  UNL1        0.0626
     50 H          -0.8170    3.1580   -2.9340 H       1  UNL1        0.0654
     51 H          -0.7330    3.4930   -5.2700 H       1  UNL1        0.0763
     52 H           0.3260    4.6350   -4.3740 H       1  UNL1        0.0763
     53 H           2.8050    4.6480   -5.9360 H       1  UNL1        0.0637
     54 H           3.4260    5.7670   -8.0690 H       1  UNL1        0.0619
     55 H           1.6430    6.2520   -9.7510 H       1  UNL1        0.0633
     56 H          -0.7050    5.5950   -9.2140 H       1  UNL1        0.0829
     57 H           2.6440    0.8740   -4.1300 H       1  UNL1        0.0654
     58 H           2.4430   -0.4980   -2.0960 H       1  UNL1        0.0626
@<TRIPOS>BOND
     1     1     2    1
     2     1    33    1
     3     1    34    1
     4     1    35    1
     5     2     3   ar
     6     2    15   ar
     7     3     4   ar
     8     3    36    1
     9     4     5   ar
    10     4    37    1
    11     5     6    1
    12     5    14   ar
    13     6     7   ar
    14     6    12   ar
    15     7     8    1
    16     7     9   ar
    17     8    38    1
    18     8    39    1
    19     8    40    1
    20     9    10   ar
    21    10    11    1
    22    10    12   ar
    23    11    41    1
    24    11    42    1
    25    11    43    1
    26    12    13    1
    27    13    44    1
    28    13    45    1
    29    13    46    1
    30    14    15   ar
    31    14    47    1
    32    15    16    1
    33    16    17   am
    34    16    48    1
    35    17    18    2
    36    17    19    1
    37    19    20   ar
    38    19    32   ar
    39    20    21   ar
    40    20    49    1
    41    21    22   ar
    42    21    50    1
    43    22    23    1
    44    22    31   ar
    45    23    24    1
    46    24    25    1
    47    24    51    1
    48    24    52    1
    49    25    26   ar
    50    25    30   ar
    51    26    27   ar
    52    26    53    1
    53    27    28   ar
    54    27    54    1
    55    28    29   ar
    56    28    55    1
    57    29    30   ar
    58    29    56    1
    59    31    32   ar
    60    31    57    1
    61    32    58    1
@<TRIPOS>MOLECULE
AD3CC00186049-I00-C01
 47 51 0 0 0
SMALL
GASTEIGER

@<TRIPOS>ATOM
      1 C           1.2630    2.5720   -3.9700 C.3     1  UNL1       -0.0223
      2 C           1.6590    1.3050   -3.2730 C.ar    1  UNL1        0.0390
      3 C           2.4450    0.3620   -3.9250 C.ar    1  UNL1       -0.0406
      4 C           2.7980   -0.7980   -3.2460 C.ar    1  UNL1       -0.0580
      5 C           2.3610   -0.9810   -1.9370 C.ar    1  UNL1       -0.0341
      6 C           1.5810    0.0060   -1.3430 C.ar    1  UNL1        0.0906
      7 C           1.1050   -0.1600    0.0360 C.ar    1  UNL1        0.1061
      8 N           1.1940   -1.4050    0.6580 N.ar    1  UNL1       -0.2228
      9 C           0.6920   -1.3600    1.8670 C.ar    1  UNL1        0.1596
     10 N           0.6150   -2.4070    2.7180 N.pl3   1  UNL1       -0.3193
     11 C           0.6830   -3.7570    2.1950 C.3     1  UNL1        0.0361
     12 C          -0.7020   -4.2550    1.8450 C.ar    1  UNL1       -0.0303
     13 C          -1.4770   -4.9400    2.7930 C.ar    1  UNL1       -0.0557
     14 C          -2.7640   -5.3770    2.4720 C.ar    1  UNL1       -0.0431
     15 C          -3.2860   -5.1240    1.2050 C.ar    1  UNL1        0.0410
     16 CL         -4.8730   -5.6600    0.8120 Cl      1  UNL1       -0.0835
     17 C          -2.5330   -4.4360    0.2560 C.ar    1  UNL1       -0.0431
     18 C          -1.2460   -4.0010    0.5760 C.ar    1  UNL1       -0.0557
     19 S           0.0960    0.1750    2.3450 S.2     1  UNL1       -0.0517
     20 C           0.5460    0.8480    0.8180 C.ar    1  UNL1        0.0514
     21 C           0.3060    2.2360    0.5770 C.ar    1  UNL1        0.0092
     22 C          -1.0280    2.8280    0.4160 C.ar    1  UNL1       -0.0485
     23 C          -1.2060    4.1380    0.1620 C.ar    1  UNL1       -0.0168
     24 C          -0.0750    4.9890    0.0490 C.ar    1  UNL1        0.1557
     25 N           0.0390    6.2760   -0.1890 N.ar    1  UNL1       -0.2149
     26 C           1.3880    6.4650   -0.1650 C.ar    1  UNL1        0.1390
     27 N           2.1280    5.3820    0.0720 N.ar    1  UNL1       -0.1535
     28 N           1.1880    4.4130    0.2110 N.ar    1  UNL1       -0.2198
     29 C           1.3710    3.0600    0.4760 C.ar    1  UNL1        0.0397
     30 N           1.2240    1.1360   -2.0020 N.ar    1  UNL1       -0.2503
     31 H           0.6820    2.3430   -4.8680 H       1  UNL1        0.0292
     32 H           0.6490    3.2000   -3.3160 H       1  UNL1        0.0292
     33 H           2.1530    3.1420   -4.2510 H       1  UNL1        0.0292
     34 H           2.7790    0.5250   -4.9450 H       1  UNL1        0.0635
     35 H           3.4110   -1.5540   -3.7290 H       1  UNL1        0.0619
     36 H           2.6320   -1.8800   -1.3920 H       1  UNL1        0.0639
     37 H          -0.0130   -2.2960    3.5050 H       1  UNL1        0.1483
     38 H           1.1140   -4.4080    2.9650 H       1  UNL1        0.0511
     39 H           1.3540   -3.8460    1.3310 H       1  UNL1        0.0511
     40 H          -1.0820   -5.1390    3.7870 H       1  UNL1        0.0621
     41 H          -3.3540   -5.9100    3.2120 H       1  UNL1        0.0632
     42 H          -2.9410   -4.2320   -0.7300 H       1  UNL1        0.0632
     43 H          -0.6670   -3.4530   -0.1660 H       1  UNL1        0.0621
     44 H          -1.8850    2.1640    0.4920 H       1  UNL1        0.0625
     45 H          -2.1950    4.5640    0.0360 H       1  UNL1        0.0655
     46 H           1.8490    7.4310   -0.3270 H       1  UNL1        0.1066
     47 H           2.4010    2.7400    0.5680 H       1  UNL1        0.0837
@<TRIPOS>BOND
     1     1     2    1
     2     1    31    1
     3     1    32    1
     4     1    33    1
     5     2     3   ar
     6     2    30   ar
     7     3     4   ar
     8     3    34    1
     9     4     5   ar
    10     4    35    1
    11     5     6   ar
    12     5    36    1
    13     6     7    1
    14     6    30   ar
    15     7     8   ar
    16     7    20   ar
    17     8     9   ar
    18     9    10    1
    19     9    19   ar
    20    10    11    1
    21    10    37    1
    22    11    12    1
    23    11    38    1
    24    11    39    1
    25    12    13   ar
    26    12    18   ar
    27    13    14   ar
    28    13    40    1
    29    14    15   ar
    30    14    41    1
    31    15    16    1
    32    15    17   ar
    33    17    18   ar
    34    17    42    1
    35    18    43    1
    36    19    20   ar
    37    20    21    1
    38    21    22   ar
    39    21    29   ar
    40    22    23   ar
    41    22    44    1
    42    23    24   ar
    43    23    45    1
    44    24    25   ar
    45    24    28   ar
    46    25    26   ar
    47    26    27   ar
    48    26    46    1
    49    27    28   ar
    50    28    29   ar
    51    29    47    1
@<TRIPOS>MOLECULE
AD3CC00186500-I00-C00
 47 51 0 0 0
SMALL
GASTEIGER

@<TRIPOS>ATOM
      1 C           3.2090   -4.5830    1.4610 C.3     1  UNL1       -0.0223
      2 C           2.9040   -3.2620    2.1000 C.ar    1  UNL1        0.0389
      3 C           3.2020   -3.0460    3.4400 C.ar    1  UNL1       -0.0406
      4 C           2.8940   -1.8130    4.0020 C.ar    1  UNL1       -0.0580
      5 C           2.2980   -0.8320    3.2150 C.ar    1  UNL1       -0.0351
      6 C           2.0320   -1.1180    1.8800 C.ar    1  UNL1        0.0800
      7 C           1.3890   -0.1690    0.9680 C.ar    1  UNL1        0.0667
      8 S           1.8110    1.5020    1.0140 S.2     1  UNL1       -0.0503
      9 C           0.7600    1.8230   -0.3040 C.ar    1  UNL1        0.1596
     10 N           0.6430    3.0770   -0.7870 N.pl3   1  UNL1       -0.3193
     11 C          -0.4860    3.3910   -1.6370 C.3     1  UNL1        0.0361
     12 C          -0.4190    4.8470   -2.0330 C.ar    1  UNL1       -0.0303
     13 C          -1.2420    5.7980   -1.4130 C.ar    1  UNL1       -0.0571
     14 C          -1.1610    7.1450   -1.7710 C.ar    1  UNL1       -0.0615
     15 C          -0.2530    7.5550   -2.7450 C.ar    1  UNL1       -0.0617
     16 C           0.5780    6.6210   -3.3610 C.ar    1  UNL1       -0.0615
     17 C           0.4980    5.2740   -3.0050 C.ar    1  UNL1       -0.0571
     18 N           0.1150    0.7800   -0.7640 N.ar    1  UNL1       -0.2242
     19 C           0.4610   -0.3560   -0.0480 C.ar    1  UNL1        0.0909
     20 C          -0.1750   -1.5870   -0.4370 C.ar    1  UNL1        0.0199
     21 C          -0.3270   -1.9070   -1.8660 C.ar    1  UNL1       -0.0476
     22 C          -0.9060   -3.0430   -2.2990 C.ar    1  UNL1       -0.0167
     23 C          -1.4040   -3.9750   -1.3530 C.ar    1  UNL1        0.1557
     24 N          -2.0010   -5.1380   -1.4900 N.ar    1  UNL1       -0.2149
     25 C          -2.2300   -5.5090   -0.1990 C.ar    1  UNL1        0.1390
     26 N          -1.8160   -4.6570    0.7380 N.ar    1  UNL1       -0.1535
     27 N          -1.2740   -3.6550   -0.0010 N.ar    1  UNL1       -0.2198
     28 C          -0.6780   -2.4790    0.4430 C.ar    1  UNL1        0.0407
     29 N           2.3290   -2.3160    1.3210 N.ar    1  UNL1       -0.2513
     30 H           2.6620   -5.3840    1.9680 H       1  UNL1        0.0292
     31 H           2.9140   -4.5830    0.4070 H       1  UNL1        0.0292
     32 H           4.2830   -4.7910    1.5140 H       1  UNL1        0.0292
     33 H           3.6630   -3.8250    4.0400 H       1  UNL1        0.0635
     34 H           3.1130   -1.6180    5.0490 H       1  UNL1        0.0619
     35 H           2.0420    0.1260    3.6520 H       1  UNL1        0.0639
     36 H           0.9710    3.8380   -0.2040 H       1  UNL1        0.1483
     37 H          -1.4300    3.1920   -1.1130 H       1  UNL1        0.0511
     38 H          -0.4820    2.7740   -2.5440 H       1  UNL1        0.0511
     39 H          -1.9540    5.4950   -0.6480 H       1  UNL1        0.0621
     40 H          -1.8060    7.8750   -1.2890 H       1  UNL1        0.0618
     41 H          -0.1900    8.6040   -3.0230 H       1  UNL1        0.0618
     42 H           1.2900    6.9410   -4.1180 H       1  UNL1        0.0618
     43 H           1.1570    4.5530   -3.4850 H       1  UNL1        0.0621
     44 H           0.0550   -1.1820   -2.5820 H       1  UNL1        0.0626
     45 H          -1.0060   -3.2630   -3.3560 H       1  UNL1        0.0655
     46 H          -2.7180   -6.4380    0.0680 H       1  UNL1        0.1066
     47 H          -0.6440   -2.3570    1.5160 H       1  UNL1        0.0837
@<TRIPOS>BOND
     1     1     2    1
     2     1    30    1
     3     1    31    1
     4     1    32    1
     5     2     3   ar
     6     2    29   ar
     7     3     4   ar
     8     3    33    1
     9     4     5   ar
    10     4    34    1
    11     5     6   ar
    12     5    35    1
    13     6     7    1
    14     6    29   ar
    15     7     8   ar
    16     7    19   ar
    17     8     9   ar
    18     9    10    1
    19     9    18   ar
    20    10    11    1
    21    10    36    1
    22    11    12    1
    23    11    37    1
    24    11    38    1
    25    12    13   ar
    26    12    17   ar
    27    13    14   ar
    28    13    39    1
    29    14    15   ar
    30    14    40    1
    31    15    16   ar
    32    15    41    1
    33    16    17   ar
    34    16    42    1
    35    17    43    1
    36    18    19   ar
    37    19    20    1
    38    20    21   ar
    39    20    28   ar
    40    21    22   ar
    41    21    44    1
    42    22    23   ar
    43    22    45    1
    44    23    24   ar
    45    23    27   ar
    46    24    25   ar
    47    25    26   ar
    48    25    46    1
    49    26    27   ar
    50    27    28   ar
    51    28    47    1
@<TRIPOS>MOLECULE
AD3CC00190933-I00-C01
 52 56 0 0 0
SMALL
GASTEIGER

@<TRIPOS>ATOM
      1 O          -1.9250    2.2010    3.3770 O.2     1  UNL1       -0.2699
      2 C          -2.8310    2.7910    2.8000 C.2     1  UNL1        0.2483
      3 N          -3.2290    2.6040    1.4910 N.am    1  UNL1       -0.2791
      4 C          -2.6370    1.7590    0.5240 C.ar    1  UNL1        0.0710
      5 C          -1.4590    1.0350    0.7220 C.ar    1  UNL1       -0.0165
      6 C          -0.9290    0.2110   -0.2890 C.ar    1  UNL1        0.0333
      7 N           0.2780   -0.4690   -0.0410 N.pl3   1  UNL1       -0.3143
      8 C           1.3020   -0.9190   -0.8900 C.ar    1  UNL1        0.0348
      9 C           1.5360   -0.3870   -2.1560 C.ar    1  UNL1       -0.0396
     10 C           2.5350   -0.9140   -2.9830 C.ar    1  UNL1       -0.0456
     11 C           3.3350   -1.9950   -2.5710 C.ar    1  UNL1        0.0640
     12 C           3.1260   -2.5120   -1.2900 C.ar    1  UNL1        0.1335
     13 C           2.1020   -1.9920   -0.4790 C.ar    1  UNL1        0.0020
     14 O           3.8170   -3.5340   -0.7000 O.3     1  UNL1       -0.4866
     15 C           5.2160   -3.5070   -0.9570 C.3     1  UNL1        0.1153
     16 C           5.4860   -4.2790   -2.2070 C.ar    1  UNL1        0.0004
     17 C           6.1920   -5.4930   -2.1580 C.ar    1  UNL1       -0.0547
     18 C           6.4620   -6.2070   -3.3260 C.ar    1  UNL1       -0.0614
     19 C           6.0350   -5.7160   -4.5550 C.ar    1  UNL1       -0.0611
     20 C           5.3290   -4.5140   -4.6140 C.ar    1  UNL1       -0.0505
     21 C           5.0380   -3.7980   -3.4420 C.ar    1  UNL1        0.0288
     22 C           4.3000   -2.5190   -3.5820 C.2     1  UNL1        0.1970
     23 O           4.4790   -1.8790   -4.6200 O.2     1  UNL1       -0.2865
     24 C          -1.6020    0.1380   -1.5150 C.ar    1  UNL1       -0.0377
     25 C          -2.7760    0.8600   -1.7310 C.ar    1  UNL1       -0.0229
     26 C          -3.2790    1.6620   -0.7150 C.ar    1  UNL1        0.1446
     27 F          -4.4080    2.3560   -0.9310 F       1  UNL1       -0.2035
     28 C          -3.6350    3.7860    3.5660 C.ar    1  UNL1        0.0370
     29 C          -3.8330    3.5700    4.9360 C.ar    1  UNL1       -0.0496
     30 C          -4.5800    4.4780    5.6880 C.ar    1  UNL1       -0.0610
     31 C          -5.1230    5.6090    5.0780 C.ar    1  UNL1       -0.0617
     32 C          -4.9130    5.8390    3.7180 C.ar    1  UNL1       -0.0610
     33 C          -4.1670    4.9320    2.9610 C.ar    1  UNL1       -0.0496
     34 H          -4.0850    3.0550    1.1850 H       1  UNL1        0.1552
     35 H          -0.9210    1.1080    1.6620 H       1  UNL1        0.0656
     36 H           0.4650   -0.6190    0.9460 H       1  UNL1        0.1522
     37 H           0.9630    0.4640   -2.5150 H       1  UNL1        0.0636
     38 H           2.6730   -0.4730   -3.9700 H       1  UNL1        0.0626
     39 H           1.9360   -2.4420    0.4980 H       1  UNL1        0.0673
     40 H           5.6210   -2.4870   -1.0080 H       1  UNL1        0.0748
     41 H           5.7060   -3.9820   -0.0990 H       1  UNL1        0.0748
     42 H           6.5380   -5.8910   -1.2060 H       1  UNL1        0.0622
     43 H           7.0110   -7.1440   -3.2760 H       1  UNL1        0.0618
     44 H           6.2500   -6.2650   -5.4690 H       1  UNL1        0.0618
     45 H           5.0030   -4.1340   -5.5810 H       1  UNL1        0.0625
     46 H          -1.2350   -0.5100   -2.3070 H       1  UNL1        0.0637
     47 H          -3.3000    0.7960   -2.6790 H       1  UNL1        0.0647
     48 H          -3.4060    2.6930    5.4190 H       1  UNL1        0.0625
     49 H          -4.7340    4.3050    6.7510 H       1  UNL1        0.0618
     50 H          -5.7010    6.3170    5.6660 H       1  UNL1        0.0618
     51 H          -5.3230    6.7310    3.2510 H       1  UNL1        0.0618
     52 H          -3.9870    5.1510    1.9120 H       1  UNL1        0.0625
@<TRIPOS>BOND
     1     1     2    2
     2     2     3   am
     3     2    28    1
     4     3     4    1
     5     3    34    1
     6     4     5   ar
     7     4    26   ar
     8     5     6   ar
     9     5    35    1
    10     6     7    1
    11     6    24   ar
    12     7     8    1
    13     7    36    1
    14     8     9   ar
    15     8    13   ar
    16     9    10   ar
    17     9    37    1
    18    10    11   ar
    19    10    38    1
    20    11    12   ar
    21    11    22    1
    22    12    13   ar
    23    12    14    1
    24    13    39    1
    25    14    15    1
    26    15    16    1
    27    15    40    1
    28    15    41    1
    29    16    17   ar
    30    16    21   ar
    31    17    18   ar
    32    17    42    1
    33    18    19   ar
    34    18    43    1
    35    19    20   ar
    36    19    44    1
    37    20    21   ar
    38    20    45    1
    39    21    22    1
    40    22    23    2
    41    24    25   ar
    42    24    46    1
    43    25    26   ar
    44    25    47    1
    45    26    27    1
    46    28    29   ar
    47    28    33   ar
    48    29    30   ar
    49    29    48    1
    50    30    31   ar
    51    30    49    1
    52    31    32   ar
    53    31    50    1
    54    32    33   ar
    55    32    51    1
    56    33    52    1
@<TRIPOS>MOLECULE
AD3CC00191142-I00-C01
 62 65 0 0 0
SMALL
GASTEIGER

@<TRIPOS>ATOM
      1 C           0.0260    2.5520    4.2240 C.3     1  UNL1       -0.0316
      2 C           0.4690    1.2510    3.5390 C.3     1  UNL1        0.1571
      3 C           1.1480    0.3540    4.5850 C.3     1  UNL1       -0.0316
      4 C           1.4330    1.5540    2.3930 C.2     1  UNL1        0.2398
      5 O           2.5510    1.0440    2.3250 O.2     1  UNL1       -0.2734
      6 N           0.9910    2.4330    1.4310 N.am    1  UNL1       -0.3118
      7 C           1.8250    2.8560    0.3160 C.3     1  UNL1        0.0296
      8 C           2.1260    1.7420   -0.6870 C.3     1  UNL1        0.0390
      9 N           2.7180    2.2580   -1.9120 N.ar    1  UNL1       -0.3412
     10 C           4.0700    2.2160   -2.1670 C.ar    1  UNL1        0.0074
     11 C           4.3050    2.9070   -3.3340 C.ar    1  UNL1       -0.0180
     12 C           3.0570    3.3740   -3.8020 C.ar    1  UNL1        0.0938
     13 N           2.8020    4.1260   -4.8920 N.ar    1  UNL1       -0.2338
     14 C           1.5070    4.4190   -5.0400 C.ar    1  UNL1        0.1188
     15 N           0.4800    4.0310   -4.2640 N.ar    1  UNL1       -0.2185
     16 C           0.7340    3.2350   -3.2050 C.ar    1  UNL1        0.1505
     17 N          -0.3750    2.7980   -2.4570 N.pl3   1  UNL1       -0.2977
     18 C          -0.8630    1.4610   -2.4740 C.ar    1  UNL1        0.0340
     19 C          -1.8320    1.0990   -1.5270 C.ar    1  UNL1       -0.0369
     20 C          -2.3640   -0.1920   -1.5060 C.ar    1  UNL1       -0.0161
     21 C          -1.9400   -1.1330   -2.4470 C.ar    1  UNL1        0.1468
     22 O          -2.4930   -2.3950   -2.4560 O.3     1  UNL1       -0.4545
     23 C          -2.2090   -3.1800   -1.3600 C.ar    1  UNL1        0.1299
     24 C          -3.2860   -3.7860   -0.7130 C.ar    1  UNL1       -0.0192
     25 C          -3.0600   -4.6140    0.3880 C.ar    1  UNL1       -0.0569
     26 C          -1.7560   -4.8440    0.8290 C.ar    1  UNL1       -0.0432
     27 C          -0.6840   -4.2540    0.1600 C.ar    1  UNL1        0.0445
     28 CL          0.9220   -4.5340    0.7100 Cl      1  UNL1       -0.0834
     29 C          -0.9000   -3.4270   -0.9400 C.ar    1  UNL1       -0.0010
     30 C          -1.0160   -0.7690   -3.4290 C.ar    1  UNL1        0.0849
     31 CL         -0.5010   -1.8900   -4.6360 Cl      1  UNL1       -0.0797
     32 C          -0.4770    0.5200   -3.4390 C.ar    1  UNL1       -0.0186
     33 C           2.0670    2.9250   -2.9310 C.ar    1  UNL1        0.1082
     34 S          -0.9710    0.4160    2.8390 S.O2    1  UNL1       -0.0203
     35 C          -0.3400   -0.9880    1.9470 C.3     1  UNL1        0.0556
     36 O          -1.7810   -0.0960    3.9290 O.2     1  UNL1       -0.1736
     37 O          -1.5730    1.3100    1.8620 O.2     1  UNL1       -0.1736
     38 H           0.8910    3.1130    4.5970 H       1  UNL1        0.0255
     39 H          -0.6360    2.3470    5.0720 H       1  UNL1        0.0255
     40 H          -0.5210    3.2140    3.5440 H       1  UNL1        0.0255
     41 H           0.4640    0.0980    5.4010 H       1  UNL1        0.0255
     42 H           2.0180    0.8550    5.0260 H       1  UNL1        0.0255
     43 H           1.5070   -0.5840    4.1500 H       1  UNL1        0.0255
     44 H          -0.0090    2.6310    1.3640 H       1  UNL1        0.1488
     45 H           2.7630    3.2480    0.7260 H       1  UNL1        0.0479
     46 H           1.3020    3.6930   -0.1590 H       1  UNL1        0.0479
     47 H           2.8310    1.0190   -0.2600 H       1  UNL1        0.0507
     48 H           1.2370    1.1680   -0.9480 H       1  UNL1        0.0507
     49 H           4.7560    1.7210   -1.4900 H       1  UNL1        0.0810
     50 H           5.2680    3.0760   -3.7950 H       1  UNL1        0.0654
     51 H           1.2530    5.0430   -5.8910 H       1  UNL1        0.1048
     52 H          -1.1360    3.3790   -2.8220 H       1  UNL1        0.1536
     53 H          -2.1700    1.8220   -0.7870 H       1  UNL1        0.0637
     54 H          -3.1130   -0.4510   -0.7620 H       1  UNL1        0.0655
     55 H          -4.3000   -3.6120   -1.0640 H       1  UNL1        0.0654
     56 H          -3.8990   -5.0810    0.8980 H       1  UNL1        0.0619
     57 H          -1.5840   -5.4900    1.6860 H       1  UNL1        0.0632
     58 H          -0.0580   -2.9920   -1.4680 H       1  UNL1        0.0669
     59 H           0.2380    0.7860   -4.2140 H       1  UNL1        0.0652
     60 H          -1.1980   -1.5040    1.5110 H       1  UNL1        0.0464
     61 H           0.3260   -0.6500    1.1520 H       1  UNL1        0.0464
     62 H           0.1750   -1.6580    2.6360 H       1  UNL1        0.0464
@<TRIPOS>BOND
     1     1     2    1
     2     1    38    1
     3     1    39    1
     4     1    40    1
     5     2     3    1
     6     2     4    1
     7     2    34    1
     8     3    41    1
     9     3    42    1
    10     3    43    1
    11     4     5    2
    12     4     6   am
    13     6     7    1
    14     6    44    1
    15     7     8    1
    16     7    45    1
    17     7    46    1
    18     8     9    1
    19     8    47    1
    20     8    48    1
    21     9    10   ar
    22     9    33   ar
    23    10    11   ar
    24    10    49    1
    25    11    12   ar
    26    11    50    1
    27    12    13   ar
    28    12    33   ar
    29    13    14   ar
    30    14    15   ar
    31    14    51    1
    32    15    16   ar
    33    16    17    1
    34    16    33   ar
    35    17    18    1
    36    17    52    1
    37    18    19   ar
    38    18    32   ar
    39    19    20   ar
    40    19    53    1
    41    20    21   ar
    42    20    54    1
    43    21    22    1
    44    21    30   ar
    45    22    23    1
    46    23    24   ar
    47    23    29   ar
    48    24    25   ar
    49    24    55    1
    50    25    26   ar
    51    25    56    1
    52    26    27   ar
    53    26    57    1
    54    27    28    1
    55    27    29   ar
    56    29    58    1
    57    30    31    1
    58    30    32   ar
    59    32    59    1
    60    34    35    1
    61    34    36    2
    62    34    37    2
    63    35    60    1
    64    35    61    1
    65    35    62    1
@<TRIPOS>MOLECULE
AD3CC00191525-I00-C00
 57 61 0 0 0
SMALL
GASTEIGER

@<TRIPOS>ATOM
      1 C          -2.7070   -0.5730    5.8140 C.3     1  UNL1       -0.0380
      2 C          -1.7760    0.1390    4.8710 C.ar    1  UNL1       -0.0291
      3 C          -1.0260    1.2190    5.3620 C.ar    1  UNL1       -0.0553
      4 C          -0.1370    1.9090    4.5350 C.ar    1  UNL1       -0.0402
      5 C           0.0140    1.5560    3.1910 C.ar    1  UNL1        0.0331
      6 N           0.9510    2.2550    2.4070 N.pl3   1  UNL1       -0.3144
      7 C           1.6110    1.9190    1.2120 C.ar    1  UNL1        0.0316
      8 C           1.9940    2.9400    0.3350 C.ar    1  UNL1       -0.0399
      9 C           2.5890    2.6430   -0.8940 C.ar    1  UNL1       -0.0489
     10 C           2.7940    1.3130   -1.2820 C.ar    1  UNL1        0.0256
     11 C           2.4440    0.2790   -0.4150 C.ar    1  UNL1       -0.0345
     12 C           1.8550    0.5960    0.8230 C.ar    1  UNL1       -0.0367
     13 C           2.6670   -1.1560   -0.7870 C.3     1  UNL1       -0.0229
     14 C           1.7440   -1.5440   -1.9320 C.3     1  UNL1       -0.0230
     15 C           2.1680   -1.0740   -3.3040 C.ar    1  UNL1       -0.0362
     16 C           1.7280   -1.8700   -4.3870 C.ar    1  UNL1       -0.0579
     17 C           2.0700   -1.5720   -5.7050 C.ar    1  UNL1       -0.0615
     18 C           2.8590   -0.4650   -5.9750 C.ar    1  UNL1       -0.0611
     19 C           3.2850    0.3470   -4.9250 C.ar    1  UNL1       -0.0507
     20 C           2.9390    0.0700   -3.5840 C.ar    1  UNL1        0.0254
     21 C           3.4310    1.0770   -2.5940 C.2     1  UNL1        0.1937
     22 O           4.3720    1.8120   -2.8970 O.2     1  UNL1       -0.2866
     23 C          -0.7400    0.4780    2.7070 C.ar    1  UNL1       -0.0190
     24 C          -1.6170   -0.2490    3.5250 C.ar    1  UNL1        0.0383
     25 N          -2.3640   -1.3470    3.0330 N.am    1  UNL1       -0.2812
     26 C          -2.1800   -2.0180    1.8350 C.2     1  UNL1        0.2483
     27 O          -1.2730   -1.8560    1.0280 O.2     1  UNL1       -0.2699
     28 C          -3.1810   -3.0900    1.5680 C.ar    1  UNL1        0.0370
     29 C          -2.7580   -4.2540    0.9150 C.ar    1  UNL1       -0.0496
     30 C          -3.6690   -5.2780    0.6520 C.ar    1  UNL1       -0.0610
     31 C          -5.0040   -5.1370    1.0280 C.ar    1  UNL1       -0.0617
     32 C          -5.4350   -3.9710    1.6610 C.ar    1  UNL1       -0.0610
     33 C          -4.5270   -2.9440    1.9280 C.ar    1  UNL1       -0.0496
     34 H          -2.6870   -0.1290    6.8150 H       1  UNL1        0.0278
     35 H          -2.4160   -1.6230    5.9150 H       1  UNL1        0.0278
     36 H          -3.7380   -0.5100    5.4500 H       1  UNL1        0.0278
     37 H          -1.1190    1.5280    6.4010 H       1  UNL1        0.0621
     38 H           0.4450    2.7250    4.9550 H       1  UNL1        0.0636
     39 H           1.1280    3.2010    2.7240 H       1  UNL1        0.1522
     40 H           1.8200    3.9820    0.5940 H       1  UNL1        0.0636
     41 H           2.8840    3.4550   -1.5560 H       1  UNL1        0.0625
     42 H           1.5960   -0.2150    1.5010 H       1  UNL1        0.0639
     43 H           3.7230   -1.3270   -1.0320 H       1  UNL1        0.0317
     44 H           2.4470   -1.7980    0.0760 H       1  UNL1        0.0317
     45 H           1.7100   -2.6420   -1.9460 H       1  UNL1        0.0317
     46 H           0.7190   -1.1980   -1.7470 H       1  UNL1        0.0317
     47 H           1.1110   -2.7480   -4.2000 H       1  UNL1        0.0620
     48 H           1.7240   -2.2080   -6.5160 H       1  UNL1        0.0618
     49 H           3.1370   -0.2230   -6.9970 H       1  UNL1        0.0618
     50 H           3.8910    1.2220   -5.1620 H       1  UNL1        0.0625
     51 H          -0.6680    0.2370    1.6520 H       1  UNL1        0.0655
     52 H          -3.0250   -1.7590    3.6760 H       1  UNL1        0.1551
     53 H          -1.7180   -4.3650    0.6140 H       1  UNL1        0.0625
     54 H          -3.3370   -6.1830    0.1480 H       1  UNL1        0.0618
     55 H          -5.7140   -5.9340    0.8160 H       1  UNL1        0.0618
     56 H          -6.4820   -3.8580    1.9340 H       1  UNL1        0.0618
     57 H          -4.8890   -2.0280    2.3880 H       1  UNL1        0.0625
@<TRIPOS>BOND
     1     1     2    1
     2     1    34    1
     3     1    35    1
     4     1    36    1
     5     2     3   ar
     6     2    24   ar
     7     3     4   ar
     8     3    37    1
     9     4     5   ar
    10     4    38    1
    11     5     6    1
    12     5    23   ar
    13     6     7    1
    14     6    39    1
    15     7     8   ar
    16     7    12   ar
    17     8     9   ar
    18     8    40    1
    19     9    10   ar
    20     9    41    1
    21    10    11   ar
    22    10    21    1
    23    11    12   ar
    24    11    13    1
    25    12    42    1
    26    13    14    1
    27    13    43    1
    28    13    44    1
    29    14    15    1
    30    14    45    1
    31    14    46    1
    32    15    16   ar
    33    15    20   ar
    34    16    17   ar
    35    16    47    1
    36    17    18   ar
    37    17    48    1
    38    18    19   ar
    39    18    49    1
    40    19    20   ar
    41    19    50    1
    42    20    21    1
    43    21    22    2
    44    23    24   ar
    45    23    51    1
    46    24    25    1
    47    25    26   am
    48    25    52    1
    49    26    27    2
    50    26    28    1
    51    28    29   ar
    52    28    33   ar
    53    29    30   ar
    54    29    53    1
    55    30    31   ar
    56    30    54    1
    57    31    32   ar
    58    31    55    1
    59    32    33   ar
    60    32    56    1
    61    33    57    1
@<TRIPOS>MOLECULE
AD3CC00194938-I01-C00
 63 67 0 0 0
SMALL
GASTEIGER

@<TRIPOS>ATOM
      1 O          -4.3620    1.9770    0.8110 O.2     1  UNL1       -0.2866
      2 C          -3.4570    1.2060    0.4890 C.2     1  UNL1        0.1938
      3 C          -2.1380    1.4160    1.1190 C.ar    1  UNL1        0.0256
      4 C          -1.6790    2.7340    1.2330 C.ar    1  UNL1       -0.0489
      5 C          -0.4360    3.0020    1.8140 C.ar    1  UNL1       -0.0399
      6 C           0.3620    1.9650    2.3090 C.ar    1  UNL1        0.0316
      7 N           1.6380    2.2650    2.8190 N.pl3   1  UNL1       -0.3144
      8 C           2.8450    1.5380    2.8030 C.ar    1  UNL1        0.0333
      9 C           3.8550    1.8980    3.7090 C.ar    1  UNL1       -0.0377
     10 C           5.0550    1.1890    3.7630 C.ar    1  UNL1       -0.0229
     11 C           5.2400    0.1010    2.9210 C.ar    1  UNL1        0.1446
     12 F           6.3940   -0.5840    2.9840 F       1  UNL1       -0.2035
     13 C           4.2500   -0.3030    2.0200 C.ar    1  UNL1        0.0708
     14 N           4.5290   -1.4360    1.2220 N.am    1  UNL1       -0.2829
     15 C           3.6730   -2.0940    0.3560 C.2     1  UNL1        0.2226
     16 O           2.5080   -1.7870    0.1260 O.2     1  UNL1       -0.2751
     17 C           4.3450   -3.2650   -0.3410 C.3     1  UNL1        0.0612
     18 C           4.8400   -4.3370    0.6070 C.3     1  UNL1       -0.0162
     19 C           4.9110   -5.5520   -0.2900 C.3     1  UNL1        0.0485
     20 O           3.8740   -5.4070   -1.2640 O.3     1  UNL1       -0.3790
     21 C           3.3950   -4.0520   -1.2270 C.3     1  UNL1        0.0588
     22 C           3.0620    0.4310    1.9640 C.ar    1  UNL1       -0.0165
     23 C          -0.1320    0.6570    2.2240 C.ar    1  UNL1       -0.0367
     24 C          -1.3760    0.3690    1.6350 C.ar    1  UNL1       -0.0345
     25 C          -1.8570   -1.0490    1.5540 C.3     1  UNL1       -0.0229
     26 C          -1.8540   -1.5200    0.1070 C.3     1  UNL1       -0.0230
     27 C          -2.9840   -1.0120   -0.7590 C.ar    1  UNL1       -0.0360
     28 C          -3.3180   -1.8230   -1.8660 C.ar    1  UNL1       -0.0544
     29 C          -4.3590   -1.4930   -2.7380 C.ar    1  UNL1       -0.0196
     30 C          -5.0940   -0.3360   -2.5270 C.ar    1  UNL1        0.1213
     31 O          -6.1360    0.1100   -3.2920 O.3     1  UNL1       -0.4897
     32 C          -6.5320   -0.7110   -4.3970 C.3     1  UNL1        0.1126
     33 C          -7.7120   -0.0250   -5.0810 C.3     1  UNL1        0.0783
     34 O          -7.3020    1.2250   -5.6330 O.3     1  UNL1       -0.3917
     35 C          -4.7630    0.4870   -1.4500 C.ar    1  UNL1       -0.0089
     36 C          -3.7060    0.1780   -0.5670 C.ar    1  UNL1        0.0289
     37 H          -2.2840    3.5560    0.8570 H       1  UNL1        0.0625
     38 H          -0.0940    4.0330    1.8590 H       1  UNL1        0.0636
     39 H           1.7450    3.2300    3.1130 H       1  UNL1        0.1522
     40 H           3.7080    2.7360    4.3880 H       1  UNL1        0.0637
     41 H           5.8360    1.4710    4.4620 H       1  UNL1        0.0647
     42 H           5.4590   -1.8210    1.3560 H       1  UNL1        0.1549
     43 H           5.1770   -2.8840   -0.9460 H       1  UNL1        0.0418
     44 H           4.1140   -4.5040    1.4130 H       1  UNL1        0.0295
     45 H           5.8040   -4.1070    1.0690 H       1  UNL1        0.0295
     46 H           4.7770   -6.4890    0.2580 H       1  UNL1        0.0560
     47 H           5.8670   -5.5940   -0.8240 H       1  UNL1        0.0560
     48 H           3.3610   -3.6560   -2.2470 H       1  UNL1        0.0567
     49 H           2.3710   -4.0820   -0.8400 H       1  UNL1        0.0567
     50 H           2.3010    0.1750    1.2360 H       1  UNL1        0.0656
     51 H           0.4560   -0.1620    2.6360 H       1  UNL1        0.0639
     52 H          -1.1910   -1.6980    2.1380 H       1  UNL1        0.0317
     53 H          -2.8490   -1.1420    2.0130 H       1  UNL1        0.0317
     54 H          -1.9170   -2.6160    0.1360 H       1  UNL1        0.0317
     55 H          -0.9020   -1.2700   -0.3830 H       1  UNL1        0.0317
     56 H          -2.7610   -2.7410   -2.0540 H       1  UNL1        0.0622
     57 H          -4.5630   -2.1640   -3.5660 H       1  UNL1        0.0654
     58 H          -6.8450   -1.6990   -4.0420 H       1  UNL1        0.0720
     59 H          -5.7010   -0.7950   -5.1060 H       1  UNL1        0.0720
     60 H          -8.5190    0.1740   -4.3690 H       1  UNL1        0.0591
     61 H          -8.0990   -0.6440   -5.8950 H       1  UNL1        0.0591
     62 H          -6.8760    1.7130   -4.9020 H       1  UNL1        0.2095
     63 H          -5.3380    1.4020   -1.3030 H       1  UNL1        0.0661
@<TRIPOS>BOND
     1     1     2    2
     2     2     3    1
     3     2    36    1
     4     3     4   ar
     5     3    24   ar
     6     4     5   ar
     7     4    37    1
     8     5     6   ar
     9     5    38    1
    10     6     7    1
    11     6    23   ar
    12     7     8    1
    13     7    39    1
    14     8     9   ar
    15     8    22   ar
    16     9    10   ar
    17     9    40    1
    18    10    11   ar
    19    10    41    1
    20    11    12    1
    21    11    13   ar
    22    13    14    1
    23    13    22   ar
    24    14    15   am
    25    14    42    1
    26    15    16    2
    27    15    17    1
    28    17    18    1
    29    17    21    1
    30    17    43    1
    31    18    19    1
    32    18    44    1
    33    18    45    1
    34    19    20    1
    35    19    46    1
    36    19    47    1
    37    20    21    1
    38    21    48    1
    39    21    49    1
    40    22    50    1
    41    23    24   ar
    42    23    51    1
    43    24    25    1
    44    25    26    1
    45    25    52    1
    46    25    53    1
    47    26    27    1
    48    26    54    1
    49    26    55    1
    50    27    28   ar
    51    27    36   ar
    52    28    29   ar
    53    28    56    1
    54    29    30   ar
    55    29    57    1
    56    30    31    1
    57    30    35   ar
    58    31    32    1
    59    32    33    1
    60    32    58    1
    61    32    59    1
    62    33    34    1
    63    33    60    1
    64    33    61    1
    65    34    62    1
    66    35    36   ar
    67    35    63    1
@<TRIPOS>MOLECULE
AD3CC00194939-I00-C00
 62 66 0 0 0
SMALL
GASTEIGER

@<TRIPOS>ATOM
      1 O          -2.8080   -2.1070   -5.7680 O.2     1  UNL1       -0.2699
      2 C          -2.2310   -2.3510   -4.7150 C.2     1  UNL1        0.2483
      3 N          -2.2690   -1.5980   -3.5550 N.am    1  UNL1       -0.2814
      4 C          -3.0480   -0.4490   -3.3070 C.ar    1  UNL1        0.0356
      5 C          -4.0090    0.0460   -4.1910 C.ar    1  UNL1       -0.0376
      6 C          -4.7570    1.1770   -3.8580 C.ar    1  UNL1       -0.0229
      7 C          -4.5380    1.8140   -2.6430 C.ar    1  UNL1        0.1445
      8 F          -5.2670    2.8990   -2.3350 F       1  UNL1       -0.2035
      9 C          -3.5740    1.3540   -1.7360 C.ar    1  UNL1        0.0688
     10 N          -3.3770    2.0440   -0.5220 N.pl3   1  UNL1       -0.3122
     11 C          -2.2170    2.2750    0.2380 C.ar    1  UNL1        0.0317
     12 C          -2.3540    2.6300    1.5780 C.ar    1  UNL1       -0.0399
     13 C          -1.2280    2.8160    2.3840 C.ar    1  UNL1       -0.0489
     14 C           0.0770    2.6560    1.8800 C.ar    1  UNL1        0.0256
     15 C           0.2390    2.3330    0.5240 C.ar    1  UNL1       -0.0345
     16 C          -0.9210    2.1230   -0.2650 C.ar    1  UNL1       -0.0367
     17 C           1.5560    2.1780   -0.2000 C.3     1  UNL1       -0.0229
     18 C           2.7270    2.9660    0.3700 C.3     1  UNL1       -0.0230
     19 C           3.2590    2.2880    1.5970 C.ar    1  UNL1       -0.0360
     20 C           4.5360    1.7100    1.5830 C.ar    1  UNL1       -0.0544
     21 C           5.0480    1.0900    2.7250 C.ar    1  UNL1       -0.0196
     22 C           4.3040    1.0450    3.9030 C.ar    1  UNL1        0.1213
     23 O           4.9250    0.4210    4.9490 O.3     1  UNL1       -0.4897
     24 C           4.2410    0.4310    6.2090 C.3     1  UNL1        0.1126
     25 C           5.1410   -0.2670    7.2260 C.3     1  UNL1        0.0783
     26 O           5.3240   -1.6360    6.8650 O.3     1  UNL1       -0.3917
     27 C           3.0330    1.6140    3.9240 C.ar    1  UNL1       -0.0089
     28 C           2.5040    2.2220    2.7700 C.ar    1  UNL1        0.0289
     29 C           1.1630    2.8320    2.8910 C.2     1  UNL1        0.1938
     30 O           0.9260    3.4530    3.9280 O.2     1  UNL1       -0.2866
     31 C          -2.8430    0.2100   -2.0820 C.ar    1  UNL1       -0.0165
     32 C          -1.3480   -3.5510   -4.6530 C.ar    1  UNL1        0.0370
     33 C          -0.6430   -3.9220   -5.8050 C.ar    1  UNL1       -0.0496
     34 C           0.1950   -5.0370   -5.7830 C.ar    1  UNL1       -0.0610
     35 C           0.3230   -5.7910   -4.6160 C.ar    1  UNL1       -0.0617
     36 C          -0.3930   -5.4370   -3.4720 C.ar    1  UNL1       -0.0610
     37 C          -1.2320   -4.3210   -3.4880 C.ar    1  UNL1       -0.0496
     38 H          -1.6220   -1.8580   -2.8220 H       1  UNL1        0.1551
     39 H          -4.2100   -0.4340   -5.1440 H       1  UNL1        0.0637
     40 H          -5.5090    1.5610   -4.5400 H       1  UNL1        0.0647
     41 H          -4.1110    2.7270   -0.3410 H       1  UNL1        0.1522
     42 H          -3.3410    2.7460    2.0180 H       1  UNL1        0.0636
     43 H          -1.3830    3.0760    3.4310 H       1  UNL1        0.0625
     44 H          -0.7940    1.8810   -1.3190 H       1  UNL1        0.0639
     45 H           1.7960    1.1080   -0.2590 H       1  UNL1        0.0317
     46 H           1.4190    2.5300   -1.2320 H       1  UNL1        0.0317
     47 H           2.4520    4.0030    0.5980 H       1  UNL1        0.0317
     48 H           3.5170    3.0200   -0.3900 H       1  UNL1        0.0317
     49 H           5.1500    1.7410    0.6840 H       1  UNL1        0.0622
     50 H           6.0420    0.6500    2.6970 H       1  UNL1        0.0654
     51 H           3.3000   -0.1240    6.1170 H       1  UNL1        0.0720
     52 H           4.0590    1.4610    6.5350 H       1  UNL1        0.0720
     53 H           6.1290    0.2020    7.2630 H       1  UNL1        0.0591
     54 H           4.6940   -0.2360    8.2230 H       1  UNL1        0.0591
     55 H           5.6020   -1.6310    5.9300 H       1  UNL1        0.2095
     56 H           2.4240    1.6060    4.8230 H       1  UNL1        0.0661
     57 H          -2.1220   -0.1860   -1.3720 H       1  UNL1        0.0656
     58 H          -0.7460   -3.3410   -6.7190 H       1  UNL1        0.0625
     59 H           0.7430   -5.3210   -6.6780 H       1  UNL1        0.0618
     60 H           0.9720   -6.6640   -4.6030 H       1  UNL1        0.0618
     61 H          -0.3060   -6.0410   -2.5720 H       1  UNL1        0.0618
     62 H          -1.8110   -4.0870   -2.5990 H       1  UNL1        0.0625
@<TRIPOS>BOND
     1     1     2    2
     2     2     3   am
     3     2    32    1
     4     3     4    1
     5     3    38    1
     6     4     5   ar
     7     4    31   ar
     8     5     6   ar
     9     5    39    1
    10     6     7   ar
    11     6    40    1
    12     7     8    1
    13     7     9   ar
    14     9    10    1
    15     9    31   ar
    16    10    11    1
    17    10    41    1
    18    11    12   ar
    19    11    16   ar
    20    12    13   ar
    21    12    42    1
    22    13    14   ar
    23    13    43    1
    24    14    15   ar
    25    14    29    1
    26    15    16   ar
    27    15    17    1
    28    16    44    1
    29    17    18    1
    30    17    45    1
    31    17    46    1
    32    18    19    1
    33    18    47    1
    34    18    48    1
    35    19    20   ar
    36    19    28   ar
    37    20    21   ar
    38    20    49    1
    39    21    22   ar
    40    21    50    1
    41    22    23    1
    42    22    27   ar
    43    23    24    1
    44    24    25    1
    45    24    51    1
    46    24    52    1
    47    25    26    1
    48    25    53    1
    49    25    54    1
    50    26    55    1
    51    27    28   ar
    52    27    56    1
    53    28    29    1
    54    29    30    2
    55    31    57    1
    56    32    33   ar
    57    32    37   ar
    58    33    34   ar
    59    33    58    1
    60    34    35   ar
    61    34    59    1
    62    35    36   ar
    63    35    60    1
    64    36    37   ar
    65    36    61    1
    66    37    62    1
@<TRIPOS>MOLECULE
AD3CC00194946-I00-C00
 63 67 0 0 0
SMALL
GASTEIGER

@<TRIPOS>ATOM
      1 O           0.0480   -4.1680    1.3970 O.2     1  UNL1       -0.2693
      2 C           0.4650   -5.3180    1.2920 C.2     1  UNL1        0.2549
      3 N           1.7000   -5.6490    0.7660 N.am    1  UNL1       -0.2787
      4 C           2.7070   -4.7930    0.2720 C.ar    1  UNL1        0.0710
      5 C           2.6450   -3.3960    0.2900 C.ar    1  UNL1       -0.0165
      6 C           3.6930   -2.6130   -0.2250 C.ar    1  UNL1        0.0333
      7 N           3.6500   -1.2070   -0.2690 N.pl3   1  UNL1       -0.3144
      8 C           2.5820   -0.2920   -0.2950 C.ar    1  UNL1        0.0316
      9 C           1.2960   -0.6250   -0.7200 C.ar    1  UNL1       -0.0399
     10 C           0.2640    0.3180   -0.6920 C.ar    1  UNL1       -0.0489
     11 C           0.5010    1.6240   -0.2430 C.ar    1  UNL1        0.0256
     12 C           1.7710    1.9740    0.2150 C.ar    1  UNL1       -0.0345
     13 C           2.7990    1.0110    0.1820 C.ar    1  UNL1       -0.0367
     14 C           2.0490    3.3490    0.7460 C.3     1  UNL1       -0.0229
     15 C           1.9610    4.3710   -0.3770 C.3     1  UNL1       -0.0230
     16 C           0.5680    4.7660   -0.8020 C.ar    1  UNL1       -0.0360
     17 C           0.4400    6.0550   -1.3600 C.ar    1  UNL1       -0.0544
     18 C          -0.7970    6.5570   -1.7640 C.ar    1  UNL1       -0.0196
     19 C          -1.9470    5.7910   -1.6220 C.ar    1  UNL1        0.1213
     20 O          -3.0930    6.3950   -2.0530 O.3     1  UNL1       -0.4893
     21 C          -4.3540    5.7930   -1.7170 C.3     1  UNL1        0.1175
     22 C          -4.7950    4.8530   -2.8460 C.3     1  UNL1        0.1120
     23 O          -4.9700    5.6170   -4.0540 O.3     1  UNL1       -0.3861
     24 C          -6.1210    4.1640   -2.5280 C.3     1  UNL1        0.0733
     25 O          -7.1620    5.1330   -2.4140 O.3     1  UNL1       -0.3923
     26 C          -1.8340    4.5050   -1.1010 C.ar    1  UNL1       -0.0089
     27 C          -0.5860    3.9690   -0.7000 C.ar    1  UNL1        0.0289
     28 C          -0.6490    2.5530   -0.2230 C.2     1  UNL1        0.1938
     29 O          -1.7330    2.0970    0.1420 O.2     1  UNL1       -0.2866
     30 C           4.8140   -3.2650   -0.7660 C.ar    1  UNL1       -0.0377
     31 C           4.8950   -4.6560   -0.7830 C.ar    1  UNL1       -0.0229
     32 C           3.8450   -5.4030   -0.2660 C.ar    1  UNL1        0.1446
     33 F           3.9290   -6.7430   -0.2890 F       1  UNL1       -0.2035
     34 C          -0.3460   -6.4590    1.7190 C.ar    1  UNL1        0.0742
     35 C          -1.6150   -6.4070    2.2700 C.ar    1  UNL1       -0.0425
     36 C          -2.1360   -7.6950    2.5800 C.ar    1  UNL1       -0.0540
     37 C          -1.2510   -8.6980    2.2570 C.ar    1  UNL1       -0.0236
     38 S           0.1960   -8.0820    1.5850 S.2     1  UNL1       -0.0921
     39 H           1.9050   -6.6420    0.7030 H       1  UNL1        0.1552
     40 H           1.7970   -2.8920    0.7400 H       1  UNL1        0.0656
     41 H           4.5640   -0.7700   -0.2930 H       1  UNL1        0.1522
     42 H           1.0740   -1.6180   -1.1010 H       1  UNL1        0.0636
     43 H          -0.7310    0.0250   -1.0220 H       1  UNL1        0.0625
     44 H           3.7870    1.2790    0.5500 H       1  UNL1        0.0639
     45 H           1.3650    3.5830    1.5710 H       1  UNL1        0.0317
     46 H           3.0600    3.3800    1.1720 H       1  UNL1        0.0317
     47 H           2.5120    4.0290   -1.2630 H       1  UNL1        0.0317
     48 H           2.4730    5.2740   -0.0150 H       1  UNL1        0.0317
     49 H           1.3160    6.6920   -1.4770 H       1  UNL1        0.0622
     50 H          -0.8620    7.5600   -2.1820 H       1  UNL1        0.0654
     51 H          -4.3340    5.3060   -0.7350 H       1  UNL1        0.0723
     52 H          -5.0600    6.6270   -1.6390 H       1  UNL1        0.0723
     53 H          -4.0260    4.1010   -3.0530 H       1  UNL1        0.0650
     54 H          -4.1550    6.1480   -4.1490 H       1  UNL1        0.2100
     55 H          -6.0660    3.5970   -1.5950 H       1  UNL1        0.0584
     56 H          -6.4020    3.4810   -3.3370 H       1  UNL1        0.0584
     57 H          -7.0900    5.6740   -3.2260 H       1  UNL1        0.2095
     58 H          -2.7120    3.8720   -1.0110 H       1  UNL1        0.0661
     59 H           5.6310   -2.6870   -1.1900 H       1  UNL1        0.0637
     60 H           5.7610   -5.1590   -1.2010 H       1  UNL1        0.0647
     61 H          -2.1410   -5.4730    2.4410 H       1  UNL1        0.0630
     62 H          -3.1110   -7.8760    3.0180 H       1  UNL1        0.0623
     63 H          -1.3830   -9.7640    2.3820 H       1  UNL1        0.0693
@<TRIPOS>BOND
     1     1     2    2
     2     2     3   am
     3     2    34    1
     4     3     4    1
     5     3    39    1
     6     4     5   ar
     7     4    32   ar
     8     5     6   ar
     9     5    40    1
    10     6     7    1
    11     6    30   ar
    12     7     8    1
    13     7    41    1
    14     8     9   ar
    15     8    13   ar
    16     9    10   ar
    17     9    42    1
    18    10    11   ar
    19    10    43    1
    20    11    12   ar
    21    11    28    1
    22    12    13   ar
    23    12    14    1
    24    13    44    1
    25    14    15    1
    26    14    45    1
    27    14    46    1
    28    15    16    1
    29    15    47    1
    30    15    48    1
    31    16    17   ar
    32    16    27   ar
    33    17    18   ar
    34    17    49    1
    35    18    19   ar
    36    18    50    1
    37    19    20    1
    38    19    26   ar
    39    20    21    1
    40    21    22    1
    41    21    51    1
    42    21    52    1
    43    22    23    1
    44    22    24    1
    45    22    53    1
    46    23    54    1
    47    24    25    1
    48    24    55    1
    49    24    56    1
    50    25    57    1
    51    26    27   ar
    52    26    58    1
    53    27    28    1
    54    28    29    2
    55    30    31   ar
    56    30    59    1
    57    31    32   ar
    58    31    60    1
    59    32    33    1
    60    34    35   ar
    61    34    38   ar
    62    35    36   ar
    63    35    61    1
    64    36    37   ar
    65    36    62    1
    66    37    38   ar
    67    37    63    1
@<TRIPOS>MOLECULE
AD3CC00194955-I00-C00
 71 76 0 0 0
SMALL
GASTEIGER

@<TRIPOS>ATOM
      1 O           3.1490    2.5920    4.1430 O.2     1  UNL1       -0.2698
      2 C           3.1660    3.1390    5.2410 C.2     1  UNL1        0.2488
      3 N           2.2980    2.8600    6.2790 N.am    1  UNL1       -0.2791
      4 C           1.2990    1.8610    6.3220 C.ar    1  UNL1        0.0712
      5 C           1.1580    0.8450    5.3710 C.ar    1  UNL1       -0.0137
      6 C           0.1280   -0.1040    5.4730 C.ar    1  UNL1        0.0689
      7 N          -0.0800   -1.1240    4.5230 N.pl3   1  UNL1       -0.3122
      8 C           0.2730   -1.2600    3.1710 C.ar    1  UNL1        0.0317
      9 C           0.3580   -2.5400    2.6260 C.ar    1  UNL1       -0.0399
     10 C           0.7500   -2.7280    1.2980 C.ar    1  UNL1       -0.0489
     11 C           1.0860   -1.6430    0.4660 C.ar    1  UNL1        0.0256
     12 C           1.0470   -0.3480    1.0030 C.ar    1  UNL1       -0.0345
     13 C           0.6180   -0.1850    2.3460 C.ar    1  UNL1       -0.0367
     14 C           1.4190    0.9260    0.2820 C.3     1  UNL1       -0.0229
     15 C           2.4280    0.7820   -0.8480 C.3     1  UNL1       -0.0230
     16 C           1.7640    0.2160   -2.0680 C.ar    1  UNL1       -0.0360
     17 C           1.6120    1.0050   -3.2180 C.ar    1  UNL1       -0.0544
     18 C           1.0040    0.4910   -4.3680 C.ar    1  UNL1       -0.0196
     19 C           0.5460   -0.8240   -4.3880 C.ar    1  UNL1        0.1213
     20 O          -0.0560   -1.4520   -5.4420 O.3     1  UNL1       -0.4907
     21 C          -0.3110   -0.6740   -6.6130 C.3     1  UNL1        0.1022
     22 C          -1.0340   -1.5430   -7.6630 C.3     1  UNL1        0.0333
     23 N          -2.4740   -1.8080   -7.4970 N.3     1  UNL1       -0.2948
     24 C          -2.8020   -2.4760   -6.2230 C.3     1  UNL1        0.0225
     25 C          -4.3030   -2.8030   -6.1520 C.3     1  UNL1        0.0604
     26 O          -5.0990   -1.6160   -6.2940 O.3     1  UNL1       -0.3772
     27 C          -4.8060   -0.9730   -7.5420 C.3     1  UNL1        0.0604
     28 C          -3.3150   -0.6080   -7.6450 C.3     1  UNL1        0.0225
     29 C           0.7010   -1.6150   -3.2490 C.ar    1  UNL1       -0.0089
     30 C           1.2910   -1.0970   -2.0860 C.ar    1  UNL1        0.0289
     31 C           1.4360   -2.0150   -0.9370 C.2     1  UNL1        0.1938
     32 O           1.8000   -3.1660   -1.1820 O.2     1  UNL1       -0.2866
     33 C          -0.7390   -0.0190    6.5770 C.ar    1  UNL1        0.1473
     34 F          -1.7250   -0.9210    6.7070 F       1  UNL1       -0.2035
     35 C          -0.6050    0.9660    7.5450 C.ar    1  UNL1        0.0125
     36 C           0.4130    1.8970    7.4070 C.ar    1  UNL1        0.1473
     37 F           0.5480    2.8560    8.3360 F       1  UNL1       -0.2034
     38 C           4.1290    4.2130    5.5310 C.ar    1  UNL1        0.0440
     39 C           4.4610    4.8100    6.7990 C.ar    1  UNL1       -0.0426
     40 C           5.4180    5.7970    6.6940 C.ar    1  UNL1       -0.0236
     41 S           5.9390    6.0150    5.0840 S.2     1  UNL1       -0.1043
     42 C           4.8920    4.7870    4.5260 C.ar    1  UNL1       -0.0122
     43 H           2.2940    3.4940    7.0690 H       1  UNL1        0.1552
     44 H           1.8750    0.7500    4.5630 H       1  UNL1        0.0656
     45 H          -0.7200   -1.8450    4.8510 H       1  UNL1        0.1522
     46 H           0.1270   -3.4140    3.2310 H       1  UNL1        0.0636
     47 H           0.7900   -3.7460    0.9110 H       1  UNL1        0.0625
     48 H           0.5400    0.8280    2.7380 H       1  UNL1        0.0639
     49 H           0.4970    1.4040   -0.0760 H       1  UNL1        0.0317
     50 H           1.8680    1.6110    1.0130 H       1  UNL1        0.0317
     51 H           3.2840    0.1600   -0.5580 H       1  UNL1        0.0317
     52 H           2.8380    1.7730   -1.0810 H       1  UNL1        0.0317
     53 H           1.9700    2.0330   -3.2310 H       1  UNL1        0.0622
     54 H           0.9140    1.1420   -5.2310 H       1  UNL1        0.0654
     55 H           0.6480   -0.3580   -7.0430 H       1  UNL1        0.0709
     56 H          -0.9040    0.2150   -6.3720 H       1  UNL1        0.0709
     57 H          -0.5240   -2.5130   -7.7240 H       1  UNL1        0.0460
     58 H          -0.8970   -1.0730   -8.6450 H       1  UNL1        0.0460
     59 H          -2.2310   -3.4060   -6.1250 H       1  UNL1        0.0449
     60 H          -2.5570   -1.8260   -5.3750 H       1  UNL1        0.0449
     61 H          -4.5910   -3.5250   -6.9260 H       1  UNL1        0.0572
     62 H          -4.5410   -3.2450   -5.1790 H       1  UNL1        0.0572
     63 H          -5.1130   -1.6280   -8.3660 H       1  UNL1        0.0572
     64 H          -5.4130   -0.0640   -7.5950 H       1  UNL1        0.0572
     65 H          -3.1350   -0.1380   -8.6190 H       1  UNL1        0.0449
     66 H          -3.0800    0.1250   -6.8640 H       1  UNL1        0.0449
     67 H           0.3600   -2.6480   -3.2680 H       1  UNL1        0.0661
     68 H          -1.2850    1.0070    8.3880 H       1  UNL1        0.0676
     69 H           4.0370    4.5310    7.7560 H       1  UNL1        0.0630
     70 H           5.8420    6.3970    7.4890 H       1  UNL1        0.0693
     71 H           4.8770    4.5370    3.4720 H       1  UNL1        0.0701
@<TRIPOS>BOND
     1     1     2    2
     2     2     3   am
     3     2    38    1
     4     3     4    1
     5     3    43    1
     6     4     5   ar
     7     4    36   ar
     8     5     6   ar
     9     5    44    1
    10     6     7    1
    11     6    33   ar
    12     7     8    1
    13     7    45    1
    14     8     9   ar
    15     8    13   ar
    16     9    10   ar
    17     9    46    1
    18    10    11   ar
    19    10    47    1
    20    11    12   ar
    21    11    31    1
    22    12    13   ar
    23    12    14    1
    24    13    48    1
    25    14    15    1
    26    14    49    1
    27    14    50    1
    28    15    16    1
    29    15    51    1
    30    15    52    1
    31    16    17   ar
    32    16    30   ar
    33    17    18   ar
    34    17    53    1
    35    18    19   ar
    36    18    54    1
    37    19    20    1
    38    19    29   ar
    39    20    21    1
    40    21    22    1
    41    21    55    1
    42    21    56    1
    43    22    23    1
    44    22    57    1
    45    22    58    1
    46    23    24    1
    47    23    28    1
    48    24    25    1
    49    24    59    1
    50    24    60    1
    51    25    26    1
    52    25    61    1
    53    25    62    1
    54    26    27    1
    55    27    28    1
    56    27    63    1
    57    27    64    1
    58    28    65    1
    59    28    66    1
    60    29    30   ar
    61    29    67    1
    62    30    31    1
    63    31    32    2
    64    33    34    1
    65    33    35   ar
    66    35    36   ar
    67    35    68    1
    68    36    37    1
    69    38    39   ar
    70    38    42   ar
    71    39    40   ar
    72    39    69    1
    73    40    41   ar
    74    40    70    1
    75    41    42   ar
    76    42    71    1
@<TRIPOS>MOLECULE
AD3CC00194966-I00-C00
 47 50 0 0 0
SMALL
GASTEIGER

@<TRIPOS>ATOM
      1 C          -3.0260    2.4770    7.6590 C.3     1  UNL1        0.0004
      2 N          -2.7250    1.7920    6.4270 N.am    1  UNL1       -0.3144
      3 C          -1.6000    1.0010    6.3220 C.2     1  UNL1        0.2439
      4 O          -0.7690    0.8810    7.2160 O.2     1  UNL1       -0.2702
      5 C          -1.4420    0.2380    5.0530 C.ar    1  UNL1        0.0374
      6 C          -0.7020   -0.9480    5.0750 C.ar    1  UNL1       -0.0493
      7 C          -0.5440   -1.7000    3.9090 C.ar    1  UNL1       -0.0572
      8 C          -1.1110   -1.2710    2.6980 C.ar    1  UNL1       -0.0362
      9 C          -1.8200   -0.0670    2.6700 C.ar    1  UNL1        0.0262
     10 C          -1.9920    0.6810    3.8470 C.ar    1  UNL1       -0.0385
     11 C          -2.4810    0.4490    1.4530 C.2     1  UNL1        0.1937
     12 O          -3.6110    0.9190    1.5990 O.2     1  UNL1       -0.2866
     13 C          -1.8320    0.5060    0.1090 C.ar    1  UNL1        0.0256
     14 C          -2.3700    1.4710   -0.7640 C.ar    1  UNL1       -0.0489
     15 C          -1.8400    1.6830   -2.0390 C.ar    1  UNL1       -0.0399
     16 C          -0.7460    0.9460   -2.4880 C.ar    1  UNL1        0.0317
     17 N          -0.2670    1.1720   -3.7880 N.pl3   1  UNL1       -0.3122
     18 C           0.5120    0.3890   -4.6620 C.ar    1  UNL1        0.0672
     19 C           0.4970   -1.0110   -4.6520 C.ar    1  UNL1       -0.0350
     20 C           1.3060   -1.7380   -5.5310 C.ar    1  UNL1       -0.0245
     21 C           2.1320   -1.0660   -6.4270 C.ar    1  UNL1        0.1262
     22 F           2.9030   -1.7690   -7.2660 F       1  UNL1       -0.2054
     23 C           2.1630    0.3190   -6.4680 C.ar    1  UNL1        0.0106
     24 C           1.3530    1.0300   -5.5900 C.ar    1  UNL1        0.1471
     25 F           1.3800    2.3720   -5.6310 F       1  UNL1       -0.2035
     26 C          -0.2250   -0.0260   -1.6280 C.ar    1  UNL1       -0.0367
     27 C          -0.7560   -0.2770   -0.3360 C.ar    1  UNL1       -0.0345
     28 C          -0.0770   -1.3750    0.4470 C.3     1  UNL1       -0.0229
     29 C          -0.9480   -2.1030    1.4600 C.3     1  UNL1       -0.0230
     30 H          -2.1200    2.9270    8.0740 H       1  UNL1        0.0426
     31 H          -3.7670    3.2530    7.4540 H       1  UNL1        0.0426
     32 H          -3.4320    1.7540    8.3720 H       1  UNL1        0.0426
     33 H          -3.4840    1.6540    5.7720 H       1  UNL1        0.1487
     34 H          -0.2550   -1.2940    6.0050 H       1  UNL1        0.0625
     35 H           0.0240   -2.6270    3.9580 H       1  UNL1        0.0621
     36 H          -2.5430    1.6180    3.8000 H       1  UNL1        0.0632
     37 H          -3.2170    2.0810   -0.4510 H       1  UNL1        0.0625
     38 H          -2.2990    2.4320   -2.6800 H       1  UNL1        0.0636
     39 H          -0.3070    2.1500   -4.0680 H       1  UNL1        0.1522
     40 H          -0.1680   -1.5510   -3.9840 H       1  UNL1        0.0638
     41 H           1.2890   -2.8240   -5.5280 H       1  UNL1        0.0647
     42 H           2.8040    0.8370   -7.1700 H       1  UNL1        0.0675
     43 H           0.6450   -0.5970   -1.9490 H       1  UNL1        0.0639
     44 H           0.8190   -0.9590    0.9260 H       1  UNL1        0.0317
     45 H           0.2700   -2.1360   -0.2670 H       1  UNL1        0.0317
     46 H          -1.9300   -2.3630    1.0460 H       1  UNL1        0.0317
     47 H          -0.4660   -3.0540    1.7190 H       1  UNL1        0.0317
@<TRIPOS>BOND
     1     1     2    1
     2     1    30    1
     3     1    31    1
     4     1    32    1
     5     2     3   am
     6     2    33    1
     7     3     4    2
     8     3     5    1
     9     5     6   ar
    10     5    10   ar
    11     6     7   ar
    12     6    34    1
    13     7     8   ar
    14     7    35    1
    15     8     9   ar
    16     8    29    1
    17     9    10   ar
    18     9    11    1
    19    10    36    1
    20    11    12    2
    21    11    13    1
    22    13    14   ar
    23    13    27   ar
    24    14    15   ar
    25    14    37    1
    26    15    16   ar
    27    15    38    1
    28    16    17    1
    29    16    26   ar
    30    17    18    1
    31    17    39    1
    32    18    19   ar
    33    18    24   ar
    34    19    20   ar
    35    19    40    1
    36    20    21   ar
    37    20    41    1
    38    21    22    1
    39    21    23   ar
    40    23    24   ar
    41    23    42    1
    42    24    25    1
    43    26    27   ar
    44    26    43    1
    45    27    28    1
    46    28    29    1
    47    28    44    1
    48    28    45    1
    49    29    46    1
    50    29    47    1
@<TRIPOS>MOLECULE
AD3CC00194972-I00-C00
 50 53 0 0 0
SMALL
GASTEIGER

@<TRIPOS>ATOM
      1 O           0.7950   -6.0580    2.0950 O.2     1  UNL1       -0.2702
      2 C           1.0530   -4.9810    2.6230 C.2     1  UNL1        0.2441
      3 N           1.0760   -4.8060    3.9900 N.am    1  UNL1       -0.3102
      4 C           0.7000   -5.8810    4.8910 C.3     1  UNL1        0.0253
      5 C          -0.8100   -6.0920    4.9800 C.3     1  UNL1        0.0381
      6 CL         -1.6140   -4.6710    5.7050 Cl      1  UNL1       -0.1238
      7 C           1.3790   -3.7970    1.7820 C.ar    1  UNL1        0.0374
      8 C           1.8790   -4.0140    0.5000 C.ar    1  UNL1       -0.0493
      9 C           2.2010   -2.9300   -0.3170 C.ar    1  UNL1       -0.0572
     10 C           2.0360   -1.5970    0.1200 C.ar    1  UNL1       -0.0362
     11 C           1.4880   -1.3770    1.3960 C.ar    1  UNL1        0.0262
     12 C           1.1710   -2.4850    2.2150 C.ar    1  UNL1       -0.0385
     13 C           1.1720   -0.0520    2.0070 C.2     1  UNL1        0.1937
     14 O           1.0980    0.0370    3.2330 O.2     1  UNL1       -0.2866
     15 C           0.8590    1.1570    1.2190 C.ar    1  UNL1        0.0256
     16 C          -0.2420    1.9210    1.6230 C.ar    1  UNL1       -0.0489
     17 C          -0.5780    3.0910    0.9380 C.ar    1  UNL1       -0.0399
     18 C           0.1860    3.5340   -0.1480 C.ar    1  UNL1        0.0317
     19 N          -0.2240    4.6940   -0.8270 N.pl3   1  UNL1       -0.3122
     20 C           0.0640    5.1890   -2.1140 C.ar    1  UNL1        0.0672
     21 C           0.3350    4.3580   -3.2070 C.ar    1  UNL1       -0.0350
     22 C           0.6290    4.9030   -4.4610 C.ar    1  UNL1       -0.0245
     23 C           0.6500    6.2840   -4.6260 C.ar    1  UNL1        0.1262
     24 F           0.9320    6.7990   -5.8300 F       1  UNL1       -0.2054
     25 C           0.3770    7.1340   -3.5670 C.ar    1  UNL1        0.0106
     26 C           0.0840    6.5800   -2.3260 C.ar    1  UNL1        0.1471
     27 F          -0.1850    7.4020   -1.2990 F       1  UNL1       -0.2035
     28 C           1.2920    2.7660   -0.5310 C.ar    1  UNL1       -0.0367
     29 C           1.6460    1.5840    0.1500 C.ar    1  UNL1       -0.0345
     30 C           2.8620    0.8110   -0.2690 C.3     1  UNL1       -0.0229
     31 C           2.4570   -0.5300   -0.8630 C.3     1  UNL1       -0.0230
     32 H           1.2940   -3.9060    4.3960 H       1  UNL1        0.1490
     33 H           1.1730   -6.8050    4.5400 H       1  UNL1        0.0474
     34 H           1.1200   -5.6450    5.8750 H       1  UNL1        0.0474
     35 H          -1.0370   -6.9530    5.6150 H       1  UNL1        0.0445
     36 H          -1.2570   -6.2570    3.9950 H       1  UNL1        0.0445
     37 H           2.0260   -5.0290    0.1330 H       1  UNL1        0.0625
     38 H           2.5980   -3.1360   -1.3110 H       1  UNL1        0.0621
     39 H           0.7180   -2.3030    3.1880 H       1  UNL1        0.0632
     40 H          -0.8440    1.6060    2.4730 H       1  UNL1        0.0625
     41 H          -1.4510    3.6540    1.2600 H       1  UNL1        0.0636
     42 H          -0.5900    5.4130   -0.2050 H       1  UNL1        0.1522
     43 H           0.2870    3.2770   -3.1040 H       1  UNL1        0.0638
     44 H           0.8330    4.2580   -5.3100 H       1  UNL1        0.0647
     45 H           0.3890    8.2090   -3.7020 H       1  UNL1        0.0675
     46 H           1.9230    3.1100   -1.3470 H       1  UNL1        0.0639
     47 H           3.4140    1.3790   -1.0290 H       1  UNL1        0.0317
     48 H           3.5480    0.6930    0.5790 H       1  UNL1        0.0317
     49 H           3.3330   -0.9040   -1.4120 H       1  UNL1        0.0317
     50 H           1.6530   -0.4020   -1.6000 H       1  UNL1        0.0317
@<TRIPOS>BOND
     1     1     2    2
     2     2     3   am
     3     2     7    1
     4     3     4    1
     5     3    32    1
     6     4     5    1
     7     4    33    1
     8     4    34    1
     9     5     6    1
    10     5    35    1
    11     5    36    1
    12     7     8   ar
    13     7    12   ar
    14     8     9   ar
    15     8    37    1
    16     9    10   ar
    17     9    38    1
    18    10    11   ar
    19    10    31    1
    20    11    12   ar
    21    11    13    1
    22    12    39    1
    23    13    14    2
    24    13    15    1
    25    15    16   ar
    26    15    29   ar
    27    16    17   ar
    28    16    40    1
    29    17    18   ar
    30    17    41    1
    31    18    19    1
    32    18    28   ar
    33    19    20    1
    34    19    42    1
    35    20    21   ar
    36    20    26   ar
    37    21    22   ar
    38    21    43    1
    39    22    23   ar
    40    22    44    1
    41    23    24    1
    42    23    25   ar
    43    25    26   ar
    44    25    45    1
    45    26    27    1
    46    28    29   ar
    47    28    46    1
    48    29    30    1
    49    30    31    1
    50    30    47    1
    51    30    48    1
    52    31    49    1
    53    31    50    1
@<TRIPOS>MOLECULE
AD3CC00194978-I00-C00
 51 54 0 0 0
SMALL
GASTEIGER

@<TRIPOS>ATOM
      1 O           3.6720   -0.7140    4.6940 O.2     1  UNL1       -0.2702
      2 C           3.1190    0.2040    4.0980 C.2     1  UNL1        0.2442
      3 N           3.6810    1.4540    3.9530 N.am    1  UNL1       -0.3092
      4 C           4.9290    1.8270    4.6080 C.3     1  UNL1        0.0351
      5 C           6.1510    1.0570    4.0950 C.3     1  UNL1        0.0597
      6 O           6.2890   -0.2080    4.7340 O.3     1  UNL1       -0.3935
      7 C           1.7670    0.0060    3.5090 C.ar    1  UNL1        0.0374
      8 C           0.9310   -0.9640    4.0690 C.ar    1  UNL1       -0.0493
      9 C          -0.3510   -1.1680    3.5550 C.ar    1  UNL1       -0.0572
     10 C          -0.8130   -0.4180    2.4620 C.ar    1  UNL1       -0.0362
     11 C           0.0380    0.5260    1.8790 C.ar    1  UNL1        0.0262
     12 C           1.3220    0.7420    2.4080 C.ar    1  UNL1       -0.0385
     13 C          -0.3680    1.3900    0.7500 C.2     1  UNL1        0.1937
     14 O          -0.0220    2.5710    0.8140 O.2     1  UNL1       -0.2866
     15 C          -1.0800    0.9000   -0.4680 C.ar    1  UNL1        0.0256
     16 C          -0.9220    1.7110   -1.6080 C.ar    1  UNL1       -0.0489
     17 C          -1.4830    1.3620   -2.8400 C.ar    1  UNL1       -0.0399
     18 C          -2.2150    0.1860   -2.9820 C.ar    1  UNL1        0.0317
     19 N          -2.7850   -0.1080   -4.2310 N.pl3   1  UNL1       -0.3122
     20 C          -3.8480   -0.9480   -4.6150 C.ar    1  UNL1        0.0672
     21 C          -4.9370   -1.2320   -3.7820 C.ar    1  UNL1       -0.0350
     22 C          -5.9570   -2.0890   -4.2090 C.ar    1  UNL1       -0.0245
     23 C          -5.8920   -2.6630   -5.4740 C.ar    1  UNL1        0.1262
     24 F          -6.8720   -3.4820   -5.8760 F       1  UNL1       -0.2054
     25 C          -4.8320   -2.3960   -6.3260 C.ar    1  UNL1        0.0106
     26 C          -3.8260   -1.5420   -5.8900 C.ar    1  UNL1        0.1471
     27 F          -2.8000   -1.2790   -6.7170 F       1  UNL1       -0.2035
     28 C          -2.3880   -0.6100   -1.8450 C.ar    1  UNL1       -0.0367
     29 C          -1.8470   -0.2710   -0.5780 C.ar    1  UNL1       -0.0345
     30 C          -2.1490   -1.2390    0.5410 C.3     1  UNL1       -0.0229
     31 C          -2.2010   -0.6380    1.9380 C.3     1  UNL1       -0.0230
     32 H           3.0830    2.2150    3.6530 H       1  UNL1        0.1491
     33 H           5.0640    2.8950    4.4090 H       1  UNL1        0.0485
     34 H           4.7980    1.6780    5.6860 H       1  UNL1        0.0485
     35 H           6.1020    0.8990    3.0130 H       1  UNL1        0.0573
     36 H           7.0600    1.6220    4.3190 H       1  UNL1        0.0573
     37 H           5.3940   -0.6180    4.7490 H       1  UNL1        0.2095
     38 H           1.2720   -1.5560    4.9170 H       1  UNL1        0.0625
     39 H          -0.9870   -1.9190    4.0200 H       1  UNL1        0.0621
     40 H           1.9680    1.4770    1.9330 H       1  UNL1        0.0632
     41 H          -0.3460    2.6340   -1.5490 H       1  UNL1        0.0625
     42 H          -1.3420    2.0290   -3.6870 H       1  UNL1        0.0636
     43 H          -2.1980    0.1650   -5.0170 H       1  UNL1        0.1522
     44 H          -5.0220   -0.7630   -2.8050 H       1  UNL1        0.0638
     45 H          -6.8050   -2.3020   -3.5650 H       1  UNL1        0.0647
     46 H          -4.7890   -2.8420   -7.3120 H       1  UNL1        0.0675
     47 H          -2.9350   -1.5460   -1.9400 H       1  UNL1        0.0639
     48 H          -3.1390   -1.6760    0.3540 H       1  UNL1        0.0317
     49 H          -1.4250   -2.0630    0.4930 H       1  UNL1        0.0317
     50 H          -2.7350   -1.3330    2.5980 H       1  UNL1        0.0317
     51 H          -2.7690    0.3010    1.9610 H       1  UNL1        0.0317
@<TRIPOS>BOND
     1     1     2    2
     2     2     3   am
     3     2     7    1
     4     3     4    1
     5     3    32    1
     6     4     5    1
     7     4    33    1
     8     4    34    1
     9     5     6    1
    10     5    35    1
    11     5    36    1
    12     6    37    1
    13     7     8   ar
    14     7    12   ar
    15     8     9   ar
    16     8    38    1
    17     9    10   ar
    18     9    39    1
    19    10    11   ar
    20    10    31    1
    21    11    12   ar
    22    11    13    1
    23    12    40    1
    24    13    14    2
    25    13    15    1
    26    15    16   ar
    27    15    29   ar
    28    16    17   ar
    29    16    41    1
    30    17    18   ar
    31    17    42    1
    32    18    19    1
    33    18    28   ar
    34    19    20    1
    35    19    43    1
    36    20    21   ar
    37    20    26   ar
    38    21    22   ar
    39    21    44    1
    40    22    23   ar
    41    22    45    1
    42    23    24    1
    43    23    25   ar
    44    25    26   ar
    45    25    46    1
    46    26    27    1
    47    28    29   ar
    48    28    47    1
    49    29    30    1
    50    30    31    1
    51    30    48    1
    52    30    49    1
    53    31    50    1
    54    31    51    1
@<TRIPOS>MOLECULE
AD3CC00194981-I00-C00
 58 61 0 0 0
SMALL
GASTEIGER

@<TRIPOS>ATOM
      1 C           3.2440   -4.6280   -1.4670 C.3     1  UNL1       -0.0130
      2 N           3.7470   -3.2770   -1.2020 N.3     1  UNL1       -0.3069
      3 C           4.4350   -3.2540    0.0930 C.3     1  UNL1       -0.0130
      4 C           4.6480   -2.8540   -2.3010 C.3     1  UNL1        0.0139
      5 C           5.0000   -1.3570   -2.2550 C.3     1  UNL1        0.0246
      6 N           3.8080   -0.5470   -2.0870 N.am    1  UNL1       -0.3101
      7 C           3.8580    0.8250   -2.1680 C.2     1  UNL1        0.2441
      8 O           4.8730    1.4410   -2.4750 O.2     1  UNL1       -0.2702
      9 C           2.6100    1.5620   -1.8200 C.ar    1  UNL1        0.0374
     10 C           2.7140    2.9080   -1.4550 C.ar    1  UNL1       -0.0493
     11 C           1.5720    3.6430   -1.1340 C.ar    1  UNL1       -0.0572
     12 C           0.3030    3.0450   -1.1700 C.ar    1  UNL1       -0.0362
     13 C           0.1980    1.6980   -1.5280 C.ar    1  UNL1        0.0262
     14 C           1.3470    0.9640   -1.8720 C.ar    1  UNL1       -0.0385
     15 C          -1.1000    1.0000   -1.6370 C.2     1  UNL1        0.1937
     16 O          -1.2600    0.2690   -2.6150 O.2     1  UNL1       -0.2866
     17 C          -2.1670    1.0660   -0.5930 C.ar    1  UNL1        0.0256
     18 C          -3.0380   -0.0410   -0.5700 C.ar    1  UNL1       -0.0489
     19 C          -4.0560   -0.1590    0.3810 C.ar    1  UNL1       -0.0399
     20 C          -4.2460    0.8280    1.3400 C.ar    1  UNL1        0.0317
     21 N          -5.2110    0.7540    2.3580 N.pl3   1  UNL1       -0.3122
     22 C          -5.9610   -0.3230    2.8700 C.ar    1  UNL1        0.0672
     23 C          -5.4840   -1.6390    2.9010 C.ar    1  UNL1       -0.0350
     24 C          -6.2760   -2.6720    3.4130 C.ar    1  UNL1       -0.0245
     25 C          -7.5480   -2.3910    3.9010 C.ar    1  UNL1        0.1262
     26 F          -8.2990   -3.3850    4.3910 F       1  UNL1       -0.2054
     27 C          -8.0450   -1.0980    3.8960 C.ar    1  UNL1        0.0106
     28 C          -7.2480   -0.0800    3.3850 C.ar    1  UNL1        0.1471
     29 F          -7.7250    1.1750    3.3830 F       1  UNL1       -0.2035
     30 C          -3.3830    1.9340    1.3130 C.ar    1  UNL1       -0.0367
     31 C          -2.3550    2.0880    0.3490 C.ar    1  UNL1       -0.0345
     32 C          -1.5460    3.3590    0.4530 C.3     1  UNL1       -0.0229
     33 C          -0.9170    3.8550   -0.8410 C.3     1  UNL1       -0.0230
     34 H           2.6790   -4.6520   -2.4050 H       1  UNL1        0.0391
     35 H           4.0520   -5.3660   -1.5310 H       1  UNL1        0.0391
     36 H           2.5510   -4.9430   -0.6780 H       1  UNL1        0.0391
     37 H           3.7620   -3.5890    0.8900 H       1  UNL1        0.0391
     38 H           4.7410   -2.2380    0.3610 H       1  UNL1        0.0391
     39 H           5.3220   -3.8970    0.1010 H       1  UNL1        0.0391
     40 H           4.1330   -3.0280   -3.2550 H       1  UNL1        0.0442
     41 H           5.5670   -3.4530   -2.3190 H       1  UNL1        0.0442
     42 H           5.5020   -1.0560   -3.1820 H       1  UNL1        0.0475
     43 H           5.6790   -1.1320   -1.4250 H       1  UNL1        0.0475
     44 H           3.0580   -1.0030   -1.5780 H       1  UNL1        0.1490
     45 H           3.6900    3.3910   -1.4280 H       1  UNL1        0.0625
     46 H           1.6840    4.6920   -0.8640 H       1  UNL1        0.0621
     47 H           1.2320   -0.0650   -2.2060 H       1  UNL1        0.0632
     48 H          -2.9250   -0.8400   -1.3030 H       1  UNL1        0.0625
     49 H          -4.7100   -1.0240    0.3300 H       1  UNL1        0.0636
     50 H          -5.6360    1.6550    2.5710 H       1  UNL1        0.1522
     51 H          -4.4800   -1.8710    2.5560 H       1  UNL1        0.0638
     52 H          -5.9030   -3.6920    3.4410 H       1  UNL1        0.0647
     53 H          -9.0330   -0.8830    4.2820 H       1  UNL1        0.0675
     54 H          -3.5110    2.7050    2.0730 H       1  UNL1        0.0639
     55 H          -2.2150    4.1590    0.7990 H       1  UNL1        0.0317
     56 H          -0.7840    3.2240    1.2320 H       1  UNL1        0.0317
     57 H          -0.6330    4.9070   -0.7120 H       1  UNL1        0.0317
     58 H          -1.6250    3.8320   -1.6780 H       1  UNL1        0.0317
@<TRIPOS>BOND
     1     1     2    1
     2     1    34    1
     3     1    35    1
     4     1    36    1
     5     2     3    1
     6     2     4    1
     7     3    37    1
     8     3    38    1
     9     3    39    1
    10     4     5    1
    11     4    40    1
    12     4    41    1
    13     5     6    1
    14     5    42    1
    15     5    43    1
    16     6     7   am
    17     6    44    1
    18     7     8    2
    19     7     9    1
    20     9    10   ar
    21     9    14   ar
    22    10    11   ar
    23    10    45    1
    24    11    12   ar
    25    11    46    1
    26    12    13   ar
    27    12    33    1
    28    13    14   ar
    29    13    15    1
    30    14    47    1
    31    15    16    2
    32    15    17    1
    33    17    18   ar
    34    17    31   ar
    35    18    19   ar
    36    18    48    1
    37    19    20   ar
    38    19    49    1
    39    20    21    1
    40    20    30   ar
    41    21    22    1
    42    21    50    1
    43    22    23   ar
    44    22    28   ar
    45    23    24   ar
    46    23    51    1
    47    24    25   ar
    48    24    52    1
    49    25    26    1
    50    25    27   ar
    51    27    28   ar
    52    27    53    1
    53    28    29    1
    54    30    31   ar
    55    30    54    1
    56    31    32    1
    57    32    33    1
    58    32    55    1
    59    32    56    1
    60    33    57    1
    61    33    58    1
@<TRIPOS>MOLECULE
AD3CC00194984-I00-C00
 56 59 0 0 0
SMALL
GASTEIGER

@<TRIPOS>ATOM
      1 C          -0.3020   -4.2740    5.9320 C.3     1  UNL1       -0.0306
      2 C          -0.1010   -5.6190    5.2630 C.3     1  UNL1        0.0897
      3 O           0.0330   -5.3990    3.8540 O.3     1  UNL1       -0.4638
      4 C           0.1760   -6.5380    3.1170 C.2     1  UNL1        0.3244
      5 O           0.2540   -7.6670    3.5890 O.2     1  UNL1       -0.2491
      6 C           0.3020   -6.2380    1.6240 C.3     1  UNL1        0.1093
      7 N           0.0890   -4.8400    1.2720 N.am    1  UNL1       -0.3008
      8 C          -1.1870   -4.3820    1.0160 C.2     1  UNL1        0.2445
      9 O          -2.1640   -5.1180    0.9410 O.2     1  UNL1       -0.2702
     10 C          -1.3470   -2.9090    0.8760 C.ar    1  UNL1        0.0374
     11 C          -2.5930   -2.3430    1.1590 C.ar    1  UNL1       -0.0493
     12 C          -2.7770   -0.9620    1.0580 C.ar    1  UNL1       -0.0572
     13 C          -1.7220   -0.1250    0.6600 C.ar    1  UNL1       -0.0362
     14 C          -0.4860   -0.6970    0.3440 C.ar    1  UNL1        0.0262
     15 C          -0.2980   -2.0850    0.4610 C.ar    1  UNL1       -0.0385
     16 C           0.6930    0.1020   -0.0480 C.2     1  UNL1        0.1937
     17 O           1.7710   -0.2320    0.4470 O.2     1  UNL1       -0.2866
     18 C           0.6600    1.2070   -1.0520 C.ar    1  UNL1        0.0256
     19 C           1.8960    1.4810   -1.6680 C.ar    1  UNL1       -0.0489
     20 C           2.0200    2.4500   -2.6670 C.ar    1  UNL1       -0.0399
     21 C           0.9110    3.1780   -3.0940 C.ar    1  UNL1        0.0317
     22 N           1.0900    4.1640   -4.0780 N.pl3   1  UNL1       -0.3122
     23 C           0.3270    5.2900   -4.4430 C.ar    1  UNL1        0.0672
     24 C          -0.4720    5.9970   -3.5360 C.ar    1  UNL1       -0.0350
     25 C          -1.2240    7.0990   -3.9580 C.ar    1  UNL1       -0.0245
     26 C          -1.1780    7.4980   -5.2900 C.ar    1  UNL1        0.1262
     27 F          -1.9000    8.5540   -5.6860 F       1  UNL1       -0.2054
     28 C          -0.3900    6.8250   -6.2100 C.ar    1  UNL1        0.0106
     29 C           0.3530    5.7320   -5.7780 C.ar    1  UNL1        0.1471
     30 F           1.1190    5.0810   -6.6680 F       1  UNL1       -0.2035
     31 C          -0.3120    2.9200   -2.4690 C.ar    1  UNL1       -0.0367
     32 C          -0.4630    1.9550   -1.4390 C.ar    1  UNL1       -0.0345
     33 C          -1.8550    1.8230   -0.8680 C.3     1  UNL1       -0.0229
     34 C          -1.9340    1.3570    0.5790 C.3     1  UNL1       -0.0230
     35 H          -1.1960   -3.7780    5.5390 H       1  UNL1        0.0262
     36 H          -0.4100   -4.3890    7.0150 H       1  UNL1        0.0262
     37 H           0.5450   -3.6110    5.7290 H       1  UNL1        0.0262
     38 H           0.8090   -6.0930    5.6490 H       1  UNL1        0.0694
     39 H          -0.9650   -6.2630    5.4580 H       1  UNL1        0.0694
     40 H          -0.4120   -6.8670    1.0830 H       1  UNL1        0.0577
     41 H           1.3220   -6.4860    1.3170 H       1  UNL1        0.0577
     42 H           0.7620   -4.1790    1.6370 H       1  UNL1        0.1496
     43 H          -3.4230   -2.9760    1.4700 H       1  UNL1        0.0625
     44 H          -3.7540   -0.5460    1.2990 H       1  UNL1        0.0621
     45 H           0.6710   -2.5070    0.2050 H       1  UNL1        0.0632
     46 H           2.7890    0.9270   -1.3760 H       1  UNL1        0.0625
     47 H           3.0000    2.6330   -3.1020 H       1  UNL1        0.0636
     48 H           1.7720    3.9060   -4.7890 H       1  UNL1        0.1522
     49 H          -0.4920    5.7210   -2.4850 H       1  UNL1        0.0638
     50 H          -1.8370    7.6520   -3.2530 H       1  UNL1        0.0647
     51 H          -0.3540    7.1430   -7.2450 H       1  UNL1        0.0675
     52 H          -1.1960    3.4600   -2.8050 H       1  UNL1        0.0639
     53 H          -2.4410    1.1670   -1.5250 H       1  UNL1        0.0317
     54 H          -2.3310    2.8130   -0.9010 H       1  UNL1        0.0317
     55 H          -2.9270    1.6070    0.9740 H       1  UNL1        0.0317
     56 H          -1.2120    1.8790    1.2190 H       1  UNL1        0.0317
@<TRIPOS>BOND
     1     1     2    1
     2     1    35    1
     3     1    36    1
     4     1    37    1
     5     2     3    1
     6     2    38    1
     7     2    39    1
     8     3     4    1
     9     4     5    2
    10     4     6    1
    11     6     7    1
    12     6    40    1
    13     6    41    1
    14     7     8   am
    15     7    42    1
    16     8     9    2
    17     8    10    1
    18    10    11   ar
    19    10    15   ar
    20    11    12   ar
    21    11    43    1
    22    12    13   ar
    23    12    44    1
    24    13    14   ar
    25    13    34    1
    26    14    15   ar
    27    14    16    1
    28    15    45    1
    29    16    17    2
    30    16    18    1
    31    18    19   ar
    32    18    32   ar
    33    19    20   ar
    34    19    46    1
    35    20    21   ar
    36    20    47    1
    37    21    22    1
    38    21    31   ar
    39    22    23    1
    40    22    48    1
    41    23    24   ar
    42    23    29   ar
    43    24    25   ar
    44    24    49    1
    45    25    26   ar
    46    25    50    1
    47    26    27    1
    48    26    28   ar
    49    28    29   ar
    50    28    51    1
    51    29    30    1
    52    31    32   ar
    53    31    52    1
    54    32    33    1
    55    33    34    1
    56    33    53    1
    57    33    54    1
    58    34    55    1
    59    34    56    1
@<TRIPOS>MOLECULE
AD3CC00194988-I00-C00
 46 49 0 0 0
SMALL
GASTEIGER

@<TRIPOS>ATOM
      1 C          -3.2950    5.3180    3.7670 C.3     1  UNL1        0.0820
      2 O          -2.4650    4.2730    3.2590 O.3     1  UNL1       -0.4645
      3 C          -1.1600    4.6170    3.1320 C.2     1  UNL1        0.3389
      4 O          -0.6780    5.7060    3.3990 O.2     1  UNL1       -0.2450
      5 C          -0.3640    3.4760    2.6040 C.ar    1  UNL1        0.0597
      6 C           1.0030    3.6730    2.3770 C.ar    1  UNL1       -0.0475
      7 C           1.7960    2.6300    1.8920 C.ar    1  UNL1       -0.0571
      8 C           1.2350    1.3740    1.6170 C.ar    1  UNL1       -0.0362
      9 C          -0.1340    1.1820    1.8260 C.ar    1  UNL1        0.0262
     10 C          -0.9270    2.2250    2.3330 C.ar    1  UNL1       -0.0367
     11 C          -0.7970   -0.1190    1.6010 C.2     1  UNL1        0.1937
     12 O          -1.5870   -0.4990    2.4660 O.2     1  UNL1       -0.2866
     13 C          -0.6230   -0.9310    0.3600 C.ar    1  UNL1        0.0256
     14 C          -1.7050   -1.7790    0.0550 C.ar    1  UNL1       -0.0489
     15 C          -1.7160   -2.5640   -1.1000 C.ar    1  UNL1       -0.0399
     16 C          -0.6510   -2.5270   -1.9970 C.ar    1  UNL1        0.0317
     17 N          -0.6920   -3.3580   -3.1280 N.pl3   1  UNL1       -0.3122
     18 C           0.3140   -3.8510   -3.9820 C.ar    1  UNL1        0.0672
     19 C           1.6280   -4.0850   -3.5590 C.ar    1  UNL1       -0.0350
     20 C           2.5910   -4.5570   -4.4550 C.ar    1  UNL1       -0.0245
     21 C           2.2440   -4.7990   -5.7800 C.ar    1  UNL1        0.1262
     22 F           3.1720   -5.2510   -6.6320 F       1  UNL1       -0.2054
     23 C           0.9500   -4.5850   -6.2290 C.ar    1  UNL1        0.0106
     24 C           0.0010   -4.1170   -5.3280 C.ar    1  UNL1        0.1471
     25 F          -1.2540   -3.9120   -5.7610 F       1  UNL1       -0.2035
     26 C           0.4320   -1.7000   -1.6830 C.ar    1  UNL1       -0.0367
     27 C           0.4790   -0.9060   -0.5080 C.ar    1  UNL1       -0.0345
     28 C           1.7360   -0.0900   -0.3220 C.3     1  UNL1       -0.0229
     29 C           2.1030    0.2580    1.1130 C.3     1  UNL1       -0.0230
     30 H          -2.9690    5.6150    4.7680 H       1  UNL1        0.0661
     31 H          -3.2900    6.1760    3.0870 H       1  UNL1        0.0661
     32 H          -4.3170    4.9360    3.8350 H       1  UNL1        0.0661
     33 H           1.4600    4.6390    2.5860 H       1  UNL1        0.0626
     34 H           2.8590    2.8090    1.7370 H       1  UNL1        0.0621
     35 H          -1.9850    2.0430    2.5170 H       1  UNL1        0.0633
     36 H          -2.5650   -1.8300    0.7230 H       1  UNL1        0.0625
     37 H          -2.5700   -3.2120   -1.2840 H       1  UNL1        0.0636
     38 H          -1.6250   -3.4570   -3.5240 H       1  UNL1        0.1522
     39 H           1.9070   -3.9360   -2.5190 H       1  UNL1        0.0638
     40 H           3.6080   -4.7460   -4.1240 H       1  UNL1        0.0647
     41 H           0.6830   -4.7800   -7.2600 H       1  UNL1        0.0675
     42 H           1.2640   -1.6390   -2.3820 H       1  UNL1        0.0639
     43 H           1.6540    0.8180   -0.9350 H       1  UNL1        0.0317
     44 H           2.5780   -0.6690   -0.7260 H       1  UNL1        0.0317
     45 H           2.0280   -0.6110    1.7780 H       1  UNL1        0.0317
     46 H           3.1540    0.5720    1.1410 H       1  UNL1        0.0317
@<TRIPOS>BOND
     1     1     2    1
     2     1    30    1
     3     1    31    1
     4     1    32    1
     5     2     3    1
     6     3     4    2
     7     3     5    1
     8     5     6   ar
     9     5    10   ar
    10     6     7   ar
    11     6    33    1
    12     7     8   ar
    13     7    34    1
    14     8     9   ar
    15     8    29    1
    16     9    10   ar
    17     9    11    1
    18    10    35    1
    19    11    12    2
    20    11    13    1
    21    13    14   ar
    22    13    27   ar
    23    14    15   ar
    24    14    36    1
    25    15    16   ar
    26    15    37    1
    27    16    17    1
    28    16    26   ar
    29    17    18    1
    30    17    38    1
    31    18    19   ar
    32    18    24   ar
    33    19    20   ar
    34    19    39    1
    35    20    21   ar
    36    20    40    1
    37    21    22    1
    38    21    23   ar
    39    23    24   ar
    40    23    41    1
    41    24    25    1
    42    26    27   ar
    43    26    42    1
    44    27    28    1
    45    28    29    1
    46    28    43    1
    47    28    44    1
    48    29    45    1
    49    29    46    1
@<TRIPOS>MOLECULE
AD3CC00194992-I00-C00
 50 53 0 0 0
SMALL
GASTEIGER

@<TRIPOS>ATOM
      1 O          -3.0220   -4.1400    4.3860 O.2     1  UNL1       -0.2450
      2 C          -2.1270   -3.8700    3.6010 C.2     1  UNL1        0.3393
      3 O          -1.4890   -4.7520    2.7930 O.3     1  UNL1       -0.4588
      4 C          -1.9520   -6.1150    2.8790 C.3     1  UNL1        0.1158
      5 C          -1.2710   -6.8270    4.0440 C.3     1  UNL1        0.0784
      6 O           0.1350   -6.9100    3.8150 O.3     1  UNL1       -0.3917
      7 C          -1.5840   -2.4980    3.4160 C.ar    1  UNL1        0.0597
      8 C          -2.1210   -1.4640    4.1910 C.ar    1  UNL1       -0.0475
      9 C          -1.6340   -0.1610    4.0640 C.ar    1  UNL1       -0.0571
     10 C          -0.6050    0.1340    3.1550 C.ar    1  UNL1       -0.0362
     11 C          -0.0820   -0.8950    2.3670 C.ar    1  UNL1        0.0262
     12 C          -0.5600   -2.2090    2.5080 C.ar    1  UNL1       -0.0367
     13 C           1.0310   -0.6860    1.4170 C.2     1  UNL1        0.1937
     14 O           1.9210   -1.5370    1.4120 O.2     1  UNL1       -0.2866
     15 C           1.0790    0.4320    0.4290 C.ar    1  UNL1        0.0256
     16 C           1.8620    0.1750   -0.7130 C.ar    1  UNL1       -0.0489
     17 C           1.9680    1.0980   -1.7580 C.ar    1  UNL1       -0.0399
     18 C           1.3000    2.3160   -1.6960 C.ar    1  UNL1        0.0317
     19 N           1.3160    3.2690   -2.7280 N.pl3   1  UNL1       -0.3122
     20 C           1.6760    3.1810   -4.0870 C.ar    1  UNL1        0.0672
     21 C           1.5160    2.0160   -4.8460 C.ar    1  UNL1       -0.0350
     22 C           1.8990    1.9840   -6.1910 C.ar    1  UNL1       -0.0245
     23 C           2.4390    3.1200   -6.7840 C.ar    1  UNL1        0.1262
     24 F           2.8010    3.0820   -8.0720 F       1  UNL1       -0.2054
     25 C           2.5980    4.2930   -6.0630 C.ar    1  UNL1        0.0106
     26 C           2.2130    4.3130   -4.7280 C.ar    1  UNL1        0.1471
     27 F           2.3620    5.4510   -4.0290 F       1  UNL1       -0.2035
     28 C           0.5270    2.5750   -0.5540 C.ar    1  UNL1       -0.0367
     29 C           0.4180    1.6650    0.5270 C.ar    1  UNL1       -0.0345
     30 C          -0.4300    2.1270    1.6880 C.3     1  UNL1       -0.0229
     31 C          -0.0800    1.5350    3.0460 C.3     1  UNL1       -0.0230
     32 H          -1.6740   -6.5930    1.9340 H       1  UNL1        0.0721
     33 H          -3.0430   -6.1520    2.9660 H       1  UNL1        0.0721
     34 H          -1.4230   -6.2970    4.9890 H       1  UNL1        0.0591
     35 H          -1.6550   -7.8460    4.1460 H       1  UNL1        0.0591
     36 H           0.4400   -6.0080    3.6100 H       1  UNL1        0.2095
     37 H          -2.9160   -1.6700    4.9050 H       1  UNL1        0.0626
     38 H          -2.0620    0.6210    4.6890 H       1  UNL1        0.0621
     39 H          -0.1180   -2.9980    1.9020 H       1  UNL1        0.0633
     40 H           2.4020   -0.7680   -0.8060 H       1  UNL1        0.0625
     41 H           2.6060    0.8510   -2.6010 H       1  UNL1        0.0636
     42 H           1.3370    4.2280   -2.3840 H       1  UNL1        0.1522
     43 H           1.0640    1.1290   -4.4090 H       1  UNL1        0.0638
     44 H           1.7720    1.0800   -6.7800 H       1  UNL1        0.0647
     45 H           3.0140    5.1780   -6.5310 H       1  UNL1        0.0675
     46 H          -0.0160    3.5190   -0.5040 H       1  UNL1        0.0639
     47 H          -0.3110    3.2150    1.7830 H       1  UNL1        0.0317
     48 H          -1.4850    1.9440    1.4420 H       1  UNL1        0.0317
     49 H          -0.5340    2.1580    3.8270 H       1  UNL1        0.0317
     50 H           1.0000    1.5510    3.2350 H       1  UNL1        0.0317
@<TRIPOS>BOND
     1     1     2    2
     2     2     3    1
     3     2     7    1
     4     3     4    1
     5     4     5    1
     6     4    32    1
     7     4    33    1
     8     5     6    1
     9     5    34    1
    10     5    35    1
    11     6    36    1
    12     7     8   ar
    13     7    12   ar
    14     8     9   ar
    15     8    37    1
    16     9    10   ar
    17     9    38    1
    18    10    11   ar
    19    10    31    1
    20    11    12   ar
    21    11    13    1
    22    12    39    1
    23    13    14    2
    24    13    15    1
    25    15    16   ar
    26    15    29   ar
    27    16    17   ar
    28    16    40    1
    29    17    18   ar
    30    17    41    1
    31    18    19    1
    32    18    28   ar
    33    19    20    1
    34    19    42    1
    35    20    21   ar
    36    20    26   ar
    37    21    22   ar
    38    21    43    1
    39    22    23   ar
    40    22    44    1
    41    23    24    1
    42    23    25   ar
    43    25    26   ar
    44    25    45    1
    45    26    27    1
    46    28    29   ar
    47    28    46    1
    48    29    30    1
    49    30    31    1
    50    30    47    1
    51    30    48    1
    52    31    49    1
    53    31    50    1
@<TRIPOS>MOLECULE
AD3CC00194993-I00-C00
 62 66 0 0 0
SMALL
GASTEIGER

@<TRIPOS>ATOM
      1 O          -2.6720    0.7730   -4.8530 O.2     1  UNL1       -0.2450
      2 C          -2.2360    1.2120   -3.8000 C.2     1  UNL1        0.3392
      3 O          -2.8670    2.0780   -2.9740 O.3     1  UNL1       -0.4599
      4 C          -4.2190    2.4090   -3.3310 C.3     1  UNL1        0.1054
      5 C          -5.1990    1.2800   -2.9590 C.3     1  UNL1        0.0334
      6 N          -5.0710    0.7820   -1.5740 N.3     1  UNL1       -0.2948
      7 C          -5.3880    1.8170   -0.5680 C.3     1  UNL1        0.0225
      8 C          -5.3280    1.2500    0.8600 C.3     1  UNL1        0.0604
      9 O          -6.2210    0.1390    1.0180 O.3     1  UNL1       -0.3772
     10 C          -5.8810   -0.8940    0.0830 C.3     1  UNL1        0.0604
     11 C          -5.9610   -0.3800   -1.3620 C.3     1  UNL1        0.0225
     12 C          -0.8990    0.8570   -3.2540 C.ar    1  UNL1        0.0597
     13 C          -0.0330    0.1150   -4.0530 C.ar    1  UNL1       -0.0475
     14 C           1.2280   -0.2390   -3.5720 C.ar    1  UNL1       -0.0571
     15 C           1.6630    0.1370   -2.2810 C.ar    1  UNL1       -0.0362
     16 C           0.7750    0.8540   -1.4580 C.ar    1  UNL1        0.0262
     17 C          -0.4930    1.2180   -1.9640 C.ar    1  UNL1       -0.0367
     18 C           1.0210    1.2730   -0.0460 C.2     1  UNL1        0.1937
     19 O           0.3790    2.2110    0.4250 O.2     1  UNL1       -0.2866
     20 C           1.9430    0.5630    0.8640 C.ar    1  UNL1        0.0256
     21 C           1.4850    0.2840    2.1570 C.ar    1  UNL1       -0.0489
     22 C           2.3120   -0.3620    3.0810 C.ar    1  UNL1       -0.0399
     23 C           3.6170   -0.7200    2.7410 C.ar    1  UNL1        0.0317
     24 N           4.4860   -1.4060    3.6090 N.pl3   1  UNL1       -0.3122
     25 C           4.2520   -2.1400    4.7890 C.ar    1  UNL1        0.0672
     26 C           3.0740   -2.8620    5.0160 C.ar    1  UNL1       -0.0350
     27 C           2.8920   -3.5690    6.2090 C.ar    1  UNL1       -0.0245
     28 C           3.8900   -3.5610    7.1770 C.ar    1  UNL1        0.1262
     29 F           3.7090   -4.2420    8.3160 F       1  UNL1       -0.2054
     30 C           5.0730   -2.8670    6.9770 C.ar    1  UNL1        0.0106
     31 C           5.2420   -2.1680    5.7870 C.ar    1  UNL1        0.1471
     32 F           6.3900   -1.5000    5.5890 F       1  UNL1       -0.2035
     33 C           4.0690   -0.4190    1.4460 C.ar    1  UNL1       -0.0367
     34 C           3.2480    0.2280    0.5030 C.ar    1  UNL1       -0.0345
     35 C           3.7750    0.5460   -0.8640 C.3     1  UNL1       -0.0229
     36 C           3.0640   -0.2960   -1.9140 C.3     1  UNL1       -0.0230
     37 H          -4.2850    2.6410   -4.4010 H       1  UNL1        0.0710
     38 H          -4.4750    3.3310   -2.7990 H       1  UNL1        0.0710
     39 H          -5.0050    0.4380   -3.6350 H       1  UNL1        0.0460
     40 H          -6.2230    1.6190   -3.1590 H       1  UNL1        0.0460
     41 H          -6.3940    2.2170   -0.7510 H       1  UNL1        0.0449
     42 H          -4.6750    2.6460   -0.6310 H       1  UNL1        0.0449
     43 H          -4.3100    0.9360    1.1200 H       1  UNL1        0.0572
     44 H          -5.6310    2.0200    1.5770 H       1  UNL1        0.0572
     45 H          -4.8800   -1.2780    0.3150 H       1  UNL1        0.0572
     46 H          -6.5920   -1.7140    0.2240 H       1  UNL1        0.0572
     47 H          -5.6810   -1.1940   -2.0400 H       1  UNL1        0.0449
     48 H          -7.0000   -0.0980   -1.5810 H       1  UNL1        0.0449
     49 H          -0.3320   -0.1900   -5.0540 H       1  UNL1        0.0626
     50 H           1.8840   -0.8160   -4.2240 H       1  UNL1        0.0621
     51 H          -1.1790    1.7750   -1.3250 H       1  UNL1        0.0633
     52 H           0.4800    0.5780    2.4550 H       1  UNL1        0.0625
     53 H           1.9270   -0.5380    4.0810 H       1  UNL1        0.0636
     54 H           5.4490   -1.0790    3.5430 H       1  UNL1        0.1522
     55 H           2.2980   -2.9070    4.2570 H       1  UNL1        0.0638
     56 H           1.9790   -4.1320    6.3840 H       1  UNL1        0.0647
     57 H           5.8500   -2.8690    7.7320 H       1  UNL1        0.0675
     58 H           5.0820   -0.7030    1.1640 H       1  UNL1        0.0639
     59 H           3.6800    1.6200   -1.0670 H       1  UNL1        0.0317
     60 H           4.8490    0.3230   -0.9040 H       1  UNL1        0.0317
     61 H           3.0310   -1.3500   -1.6090 H       1  UNL1        0.0317
     62 H           3.6810   -0.2460   -2.8210 H       1  UNL1        0.0317
@<TRIPOS>BOND
     1     1     2    2
     2     2     3    1
     3     2    12    1
     4     3     4    1
     5     4     5    1
     6     4    37    1
     7     4    38    1
     8     5     6    1
     9     5    39    1
    10     5    40    1
    11     6     7    1
    12     6    11    1
    13     7     8    1
    14     7    41    1
    15     7    42    1
    16     8     9    1
    17     8    43    1
    18     8    44    1
    19     9    10    1
    20    10    11    1
    21    10    45    1
    22    10    46    1
    23    11    47    1
    24    11    48    1
    25    12    13   ar
    26    12    17   ar
    27    13    14   ar
    28    13    49    1
    29    14    15   ar
    30    14    50    1
    31    15    16   ar
    32    15    36    1
    33    16    17   ar
    34    16    18    1
    35    17    51    1
    36    18    19    2
    37    18    20    1
    38    20    21   ar
    39    20    34   ar
    40    21    22   ar
    41    21    52    1
    42    22    23   ar
    43    22    53    1
    44    23    24    1
    45    23    33   ar
    46    24    25    1
    47    24    54    1
    48    25    26   ar
    49    25    31   ar
    50    26    27   ar
    51    26    55    1
    52    27    28   ar
    53    27    56    1
    54    28    29    1
    55    28    30   ar
    56    30    31   ar
    57    30    57    1
    58    31    32    1
    59    33    34   ar
    60    33    58    1
    61    34    35    1
    62    35    36    1
    63    35    59    1
    64    35    60    1
    65    36    61    1
    66    36    62    1
@<TRIPOS>MOLECULE
AD3CC00205852-I00-C00
 99 106 0 0 0
SMALL
GASTEIGER

@<TRIPOS>ATOM
      1 C           3.1650    3.0210    4.8310 C.3     1  UNL1       -0.0546
      2 C           1.9740    3.0550    3.8480 C.3     1  UNL1        0.0063
      3 C           0.7510    3.5970    4.6160 C.3     1  UNL1       -0.0546
      4 C           2.3190    4.0330    2.7070 C.3     1  UNL1       -0.0546
      5 C           1.6680    1.6810    3.2720 C.ar    1  UNL1        0.0706
      6 C           0.5590    1.3060    2.4800 C.ar    1  UNL1        0.0021
      7 C           0.7650   -0.0120    2.1300 C.ar    1  UNL1        0.1299
      8 N           0.1000   -0.8220    1.2130 N.am    1  UNL1       -0.2538
      9 C          -0.8740   -0.3480    0.3370 C.2     1  UNL1        0.3092
     10 O          -1.2770    0.8080    0.3050 O.2     1  UNL1       -0.2521
     11 N          -1.3140   -1.3870   -0.4700 N.am    1  UNL1       -0.2686
     12 C          -2.0560   -1.3160   -1.6800 C.ar    1  UNL1        0.0427
     13 C          -2.1400   -0.1130   -2.3920 C.ar    1  UNL1       -0.0363
     14 C          -2.7660   -0.0610   -3.6360 C.ar    1  UNL1       -0.0169
     15 C          -3.3340   -1.2130   -4.1770 C.ar    1  UNL1        0.1381
     16 O          -3.8770   -1.1430   -5.4470 O.3     1  UNL1       -0.4373
     17 C          -5.2100   -0.7460   -5.5320 C.ar    1  UNL1        0.2249
     18 C          -5.8360   -0.9560   -6.7340 C.ar    1  UNL1        0.0186
     19 C          -7.1460   -0.5520   -6.7780 C.ar    1  UNL1        0.0362
     20 N          -7.7880    0.0230   -5.7410 N.ar    1  UNL1       -0.2225
     21 C          -7.0870    0.2020   -4.6090 C.ar    1  UNL1        0.2226
     22 N          -7.7530    0.8640   -3.5750 N.pl3   1  UNL1       -0.2835
     23 C          -7.2520    1.4140   -2.3840 C.ar    1  UNL1        0.0356
     24 C          -7.9330    2.4990   -1.7790 C.ar    1  UNL1       -0.0401
     25 C          -7.4180    3.1700   -0.6560 C.ar    1  UNL1       -0.0543
     26 C          -6.2080    2.7400   -0.1510 C.ar    1  UNL1       -0.0129
     27 C          -5.5440    1.6460   -0.7120 C.ar    1  UNL1        0.0727
     28 C          -6.0610    0.9700   -1.7970 C.ar    1  UNL1       -0.0147
     29 N          -4.3070    1.3900   -0.1050 N.2     1  UNL1       -0.2169
     30 C          -4.1900    2.3150    0.7890 C.2     1  UNL1        0.1920
     31 O          -3.0890    2.4390    1.5150 O.2     1  UNL1       -0.4952
     32 C          -5.3480    3.2680    0.9540 C.3     1  UNL1        0.0505
     33 N          -5.8100   -0.1750   -4.4790 N.ar    1  UNL1       -0.1789
     34 C          -3.2740   -2.4480   -3.4980 C.ar    1  UNL1        0.0262
     35 C          -3.8280   -3.6210   -4.0600 C.ar    1  UNL1       -0.0505
     36 C          -3.7900   -4.8420   -3.3930 C.ar    1  UNL1       -0.0611
     37 C          -3.1990   -4.9180   -2.1450 C.ar    1  UNL1       -0.0611
     38 C          -2.6350   -3.7730   -1.5710 C.ar    1  UNL1       -0.0521
     39 C          -2.6400   -2.5100   -2.2240 C.ar    1  UNL1        0.0069
     40 N           1.8810   -0.4130    2.8680 N.ar    1  UNL1       -0.2179
     41 C           2.4210   -1.7170    3.0690 C.ar    1  UNL1        0.0709
     42 C           1.6390   -2.8710    2.9450 C.ar    1  UNL1       -0.0360
     43 C           2.2210   -4.1250    3.1390 C.ar    1  UNL1       -0.0563
     44 C           3.5750   -4.2280    3.4640 C.ar    1  UNL1       -0.0198
     45 C           4.3580   -3.0840    3.6270 C.ar    1  UNL1        0.1226
     46 O           5.6660   -3.3220    3.9480 O.3     1  UNL1       -0.4906
     47 C           6.5040   -2.1970    4.2500 C.3     1  UNL1        0.1022
     48 C           7.1020   -1.5950    2.9640 C.3     1  UNL1        0.0333
     49 N           7.8720   -0.3610    3.2050 N.3     1  UNL1       -0.2948
     50 C           8.7500   -0.0390    2.0560 C.3     1  UNL1        0.0225
     51 C           8.0030    0.5040    0.8260 C.3     1  UNL1        0.0604
     52 O           7.2320    1.6640    1.1580 O.3     1  UNL1       -0.3772
     53 C           6.2950    1.3670    2.2010 C.3     1  UNL1        0.0604
     54 C           7.0030    0.8170    3.4540 C.3     1  UNL1        0.0225
     55 C           3.7720   -1.8320    3.4430 C.ar    1  UNL1        0.0056
     56 N           2.5110    0.6560    3.4250 N.ar    1  UNL1       -0.1691
     57 H           4.0860    2.6900    4.3370 H       1  UNL1        0.0239
     58 H           2.9750    2.3360    5.6660 H       1  UNL1        0.0239
     59 H           3.3600    4.0130    5.2530 H       1  UNL1        0.0239
     60 H           0.4600    2.9180    5.4270 H       1  UNL1        0.0239
     61 H           0.9630    4.5760    5.0610 H       1  UNL1        0.0239
     62 H          -0.1190    3.7180    3.9600 H       1  UNL1        0.0239
     63 H           2.5490    5.0310    3.0950 H       1  UNL1        0.0239
     64 H           3.1880    3.6850    2.1350 H       1  UNL1        0.0239
     65 H           1.4860    4.1380    2.0010 H       1  UNL1        0.0239
     66 H          -0.2360    1.9570    2.1450 H       1  UNL1        0.0671
     67 H           0.5550   -1.6810    0.9400 H       1  UNL1        0.1578
     68 H          -1.2200   -2.2980   -0.0570 H       1  UNL1        0.1564
     69 H          -1.7120    0.8070   -2.0040 H       1  UNL1        0.0637
     70 H          -2.8150    0.8800   -4.1770 H       1  UNL1        0.0655
     71 H          -5.3380   -1.4110   -7.5760 H       1  UNL1        0.0686
     72 H          -7.7410   -0.6770   -7.6780 H       1  UNL1        0.0832
     73 H          -8.6400    1.2060   -3.9110 H       1  UNL1        0.1550
     74 H          -8.8690    2.8550   -2.2090 H       1  UNL1        0.0636
     75 H          -7.9440    4.0160   -0.2270 H       1  UNL1        0.0622
     76 H          -5.5050    0.1250   -2.1810 H       1  UNL1        0.0657
     77 H          -2.4450    1.7930    1.1450 H       1  UNL1        0.2934
     78 H          -5.0250    4.2950    0.7690 H       1  UNL1        0.0409
     79 H          -5.8100    3.1430    1.9350 H       1  UNL1        0.0409
     80 H          -4.3100   -3.5890   -5.0350 H       1  UNL1        0.0625
     81 H          -4.2330   -5.7250   -3.8470 H       1  UNL1        0.0618
     82 H          -3.1820   -5.8630   -1.6070 H       1  UNL1        0.0618
     83 H          -2.2070   -3.8980   -0.5820 H       1  UNL1        0.0624
     84 H           0.5690   -2.8270    2.7690 H       1  UNL1        0.0639
     85 H           1.6180   -5.0270    3.0580 H       1  UNL1        0.0619
     86 H           4.0200   -5.2090    3.6160 H       1  UNL1        0.0654
     87 H           7.3250   -2.5820    4.8670 H       1  UNL1        0.0709
     88 H           5.9780   -1.4740    4.8820 H       1  UNL1        0.0709
     89 H           7.7660   -2.3660    2.5490 H       1  UNL1        0.0460
     90 H           6.3300   -1.4540    2.2010 H       1  UNL1        0.0460
     91 H           9.3570   -0.9090    1.7790 H       1  UNL1        0.0449
     92 H           9.4590    0.7280    2.3960 H       1  UNL1        0.0449
     93 H           7.3470   -0.2540    0.3820 H       1  UNL1        0.0572
     94 H           8.7260    0.8000    0.0600 H       1  UNL1        0.0572
     95 H           5.7780    2.2990    2.4520 H       1  UNL1        0.0572
     96 H           5.5420    0.6680    1.8190 H       1  UNL1        0.0572
     97 H           6.2660    0.6110    4.2370 H       1  UNL1        0.0449
     98 H           7.6490    1.6100    3.8560 H       1  UNL1        0.0449
     99 H           4.3550   -0.9250    3.5600 H       1  UNL1        0.0675
@<TRIPOS>BOND
     1     2     1    1
     2     1    57    1
     3     1    58    1
     4     1    59    1
     5     2     3    1
     6     2     4    1
     7     2     5    1
     8     3    60    1
     9     3    61    1
    10     3    62    1
    11     4    63    1
    12     4    64    1
    13     4    65    1
    14     5     6   ar
    15     5    56   ar
    16     6     7   ar
    17     6    66    1
    18     7     8    1
    19     7    40   ar
    20     8     9   am
    21     8    67    1
    22     9    10    2
    23     9    11   am
    24    11    12    1
    25    11    68    1
    26    12    13   ar
    27    12    39   ar
    28    13    14   ar
    29    13    69    1
    30    14    15   ar
    31    14    70    1
    32    15    16    1
    33    15    34   ar
    34    16    17    1
    35    17    18   ar
    36    17    33   ar
    37    18    19   ar
    38    18    71    1
    39    19    20   ar
    40    19    72    1
    41    20    21   ar
    42    21    22    1
    43    21    33   ar
    44    22    23    1
    45    22    73    1
    46    23    24   ar
    47    23    28   ar
    48    24    25   ar
    49    24    74    1
    50    25    26   ar
    51    25    75    1
    52    26    27   ar
    53    26    32    1
    54    27    28   ar
    55    27    29    1
    56    28    76    1
    57    29    30    2
    58    30    31    1
    59    30    32    1
    60    31    77    1
    61    32    78    1
    62    32    79    1
    63    34    35   ar
    64    34    39   ar
    65    35    36   ar
    66    35    80    1
    67    36    37   ar
    68    36    81    1
    69    37    38   ar
    70    37    82    1
    71    38    39   ar
    72    38    83    1
    73    40    41    1
    74    40    56   ar
    75    41    42   ar
    76    41    55   ar
    77    42    43   ar
    78    42    84    1
    79    43    44   ar
    80    43    85    1
    81    44    45   ar
    82    44    86    1
    83    45    46    1
    84    45    55   ar
    85    46    47    1
    86    47    48    1
    87    47    87    1
    88    47    88    1
    89    48    49    1
    90    48    89    1
    91    48    90    1
    92    49    50    1
    93    49    54    1
    94    50    51    1
    95    50    91    1
    96    50    92    1
    97    51    52    1
    98    51    93    1
    99    51    94    1
   100    52    53    1
   101    53    54    1
   102    53    95    1
   103    53    96    1
   104    54    97    1
   105    54    98    1
   106    55    99    1
@<TRIPOS>MOLECULE
AD3CC00205867-I00-C00
 99 106 0 0 0
SMALL
GASTEIGER

@<TRIPOS>ATOM
      1 C           1.0850   -7.7980   -1.0090 C.3     1  UNL1       -0.0546
      2 C          -0.0980   -6.8140   -1.1190 C.3     1  UNL1        0.0063
      3 C          -1.2340   -7.3390   -0.2160 C.3     1  UNL1       -0.0546
      4 C          -0.6110   -6.8080   -2.5740 C.3     1  UNL1       -0.0546
      5 C           0.3470   -5.4160   -0.7180 C.ar    1  UNL1        0.0706
      6 C          -0.1780   -4.5670    0.2820 C.ar    1  UNL1        0.0021
      7 C           0.5290   -3.3860    0.1920 C.ar    1  UNL1        0.1299
      8 N           0.3150   -2.1530    0.8010 N.am    1  UNL1       -0.2538
      9 C          -0.8010   -1.8700    1.5830 C.2     1  UNL1        0.3092
     10 O          -1.6940   -2.6640    1.8490 O.2     1  UNL1       -0.2521
     11 N          -0.7430   -0.5540    2.0210 N.am    1  UNL1       -0.2686
     12 C          -1.7730    0.2070    2.6350 C.ar    1  UNL1        0.0427
     13 C          -3.0980   -0.2440    2.6130 C.ar    1  UNL1       -0.0363
     14 C          -4.1270    0.5360    3.1320 C.ar    1  UNL1       -0.0169
     15 C          -3.8430    1.7950    3.6540 C.ar    1  UNL1        0.1381
     16 O          -4.8980    2.5610    4.1120 O.3     1  UNL1       -0.4373
     17 C          -5.6070    3.2540    3.1300 C.ar    1  UNL1        0.2249
     18 C          -6.6990    3.9670    3.5520 C.ar    1  UNL1        0.0186
     19 C          -7.3640    4.6330    2.5580 C.ar    1  UNL1        0.0362
     20 N          -6.9970    4.6020    1.2610 N.ar    1  UNL1       -0.2225
     21 C          -5.9120    3.8750    0.9430 C.ar    1  UNL1        0.2226
     22 N          -5.5850    3.8470   -0.4100 N.pl3   1  UNL1       -0.2835
     23 C          -4.6100    3.1650   -1.1510 C.ar    1  UNL1        0.0339
     24 C          -3.5590    2.4320   -0.5650 C.ar    1  UNL1       -0.0401
     25 C          -2.6140    1.7430   -1.3360 C.ar    1  UNL1       -0.0543
     26 C          -2.7200    1.8080   -2.7100 C.ar    1  UNL1       -0.0164
     27 C          -3.7340    2.5330   -3.3110 C.ar    1  UNL1       -0.0148
     28 C          -4.6800    3.2100   -2.5550 C.ar    1  UNL1       -0.0348
     29 C          -3.6180    2.4080   -4.7850 C.3     1  UNL1        0.0735
     30 O          -2.3450    1.7540   -4.9960 O.3     1  UNL1       -0.3706
     31 C          -1.8890    1.1660   -3.7560 C.3     1  UNL1        0.0734
     32 N          -5.2010    3.2020    1.8490 N.ar    1  UNL1       -0.1789
     33 C          -2.5210    2.2760    3.7380 C.ar    1  UNL1        0.0262
     34 C          -2.2370    3.5360    4.3100 C.ar    1  UNL1       -0.0505
     35 C          -0.9360    4.0260    4.3920 C.ar    1  UNL1       -0.0611
     36 C           0.1110    3.2630    3.9050 C.ar    1  UNL1       -0.0611
     37 C          -0.1470    2.0120    3.3340 C.ar    1  UNL1       -0.0521
     38 C          -1.4600    1.4790    3.2230 C.ar    1  UNL1        0.0069
     39 N           1.5490   -3.6420   -0.7280 N.ar    1  UNL1       -0.2181
     40 C           2.7030   -2.8660   -1.0410 C.ar    1  UNL1        0.0677
     41 C           3.3310   -3.0450   -2.2800 C.ar    1  UNL1       -0.0327
     42 C           4.4600   -2.2900   -2.6110 C.ar    1  UNL1       -0.0179
     43 C           4.9940   -1.3670   -1.7090 C.ar    1  UNL1        0.1207
     44 O           6.0900   -0.6960   -2.1700 O.3     1  UNL1       -0.4907
     45 C           6.7700    0.2060   -1.2910 C.3     1  UNL1        0.1022
     46 C           6.1320    1.6060   -1.3380 C.3     1  UNL1        0.0333
     47 N           6.8660    2.6230   -0.5630 N.3     1  UNL1       -0.2948
     48 C           6.7730    2.3920    0.8940 C.3     1  UNL1        0.0225
     49 C           7.4500    3.5190    1.6920 C.3     1  UNL1        0.0604
     50 O           6.8740    4.7930    1.3770 O.3     1  UNL1       -0.3772
     51 C           7.0190    5.0590   -0.0250 C.3     1  UNL1        0.0604
     52 C           6.3300    3.9730   -0.8630 C.3     1  UNL1        0.0225
     53 C           4.3910   -1.2130   -0.4610 C.ar    1  UNL1       -0.0179
     54 C           3.2550   -1.9630   -0.1240 C.ar    1  UNL1       -0.0327
     55 N           1.3440   -4.8160   -1.3780 N.ar    1  UNL1       -0.1691
     56 H           1.9070   -7.5200   -1.6770 H       1  UNL1        0.0239
     57 H           0.7800   -8.8170   -1.2730 H       1  UNL1        0.0239
     58 H           1.4850   -7.8220    0.0120 H       1  UNL1        0.0239
     59 H          -2.1230   -6.7000   -0.2760 H       1  UNL1        0.0239
     60 H          -0.9240   -7.3790    0.8350 H       1  UNL1        0.0239
     61 H          -1.5370   -8.3510   -0.5090 H       1  UNL1        0.0239
     62 H           0.1710   -6.5020   -3.2780 H       1  UNL1        0.0239
     63 H          -0.9560   -7.8020   -2.8790 H       1  UNL1        0.0239
     64 H          -1.4480   -6.1110   -2.6950 H       1  UNL1        0.0239
     65 H          -1.0210   -4.7650    0.9290 H       1  UNL1        0.0671
     66 H           0.8150   -1.3600    0.4280 H       1  UNL1        0.1578
     67 H           0.1740   -0.1470    2.0120 H       1  UNL1        0.1564
     68 H          -3.3760   -1.1900    2.1600 H       1  UNL1        0.0637
     69 H          -5.1520    0.1800    3.0840 H       1  UNL1        0.0655
     70 H          -7.0090    3.9990    4.5850 H       1  UNL1        0.0686
     71 H          -8.2460    5.2300    2.7750 H       1  UNL1        0.0832
     72 H          -6.2890    4.3490   -0.9310 H       1  UNL1        0.1550
     73 H          -3.4540    2.3810    0.5140 H       1  UNL1        0.0636
     74 H          -1.8280    1.1730   -0.8520 H       1  UNL1        0.0622
     75 H          -5.4710    3.7610   -3.0530 H       1  UNL1        0.0640
     76 H          -4.4100    1.7760   -5.2010 H       1  UNL1        0.0610
     77 H          -3.5980    3.3790   -5.2880 H       1  UNL1        0.0610
     78 H          -2.0540    0.0860   -3.7990 H       1  UNL1        0.0610
     79 H          -0.8260    1.3880   -3.6370 H       1  UNL1        0.0610
     80 H          -3.0430    4.1550    4.7010 H       1  UNL1        0.0625
     81 H          -0.7460    5.0000    4.8360 H       1  UNL1        0.0618
     82 H           1.1320    3.6320    3.9720 H       1  UNL1        0.0618
     83 H           0.7190    1.4570    2.9890 H       1  UNL1        0.0624
     84 H           2.9440   -3.7550   -3.0090 H       1  UNL1        0.0640
     85 H           4.9290   -2.4280   -3.5840 H       1  UNL1        0.0655
     86 H           7.7990    0.2790   -1.6660 H       1  UNL1        0.0709
     87 H           6.8520   -0.2080   -0.2810 H       1  UNL1        0.0709
     88 H           5.0810    1.5590   -1.0250 H       1  UNL1        0.0460
     89 H           6.1060    1.9070   -2.3940 H       1  UNL1        0.0460
     90 H           7.2590    1.4490    1.1630 H       1  UNL1        0.0449
     91 H           5.7180    2.3300    1.1940 H       1  UNL1        0.0449
     92 H           7.3100    3.3480    2.7650 H       1  UNL1        0.0572
     93 H           8.5290    3.5500    1.4980 H       1  UNL1        0.0572
     94 H           6.5570    6.0310   -0.2260 H       1  UNL1        0.0572
     95 H           8.0840    5.1400   -0.2720 H       1  UNL1        0.0572
     96 H           5.2530    3.9970   -0.6540 H       1  UNL1        0.0449
     97 H           6.4770    4.2030   -1.9250 H       1  UNL1        0.0449
     98 H           4.7860   -0.5300    0.2830 H       1  UNL1        0.0655
     99 H           2.8670   -1.8670    0.8860 H       1  UNL1        0.0640
@<TRIPOS>BOND
     1     2     1    1
     2     1    56    1
     3     1    57    1
     4     1    58    1
     5     2     3    1
     6     2     4    1
     7     2     5    1
     8     3    59    1
     9     3    60    1
    10     3    61    1
    11     4    62    1
    12     4    63    1
    13     4    64    1
    14     5     6   ar
    15     5    55   ar
    16     6     7   ar
    17     6    65    1
    18     7     8    1
    19     7    39   ar
    20     8     9   am
    21     8    66    1
    22     9    10    2
    23     9    11   am
    24    11    12    1
    25    11    67    1
    26    12    13   ar
    27    12    38   ar
    28    13    14   ar
    29    13    68    1
    30    14    15   ar
    31    14    69    1
    32    15    16    1
    33    15    33   ar
    34    16    17    1
    35    17    18   ar
    36    17    32   ar
    37    18    19   ar
    38    18    70    1
    39    19    20   ar
    40    19    71    1
    41    20    21   ar
    42    21    22    1
    43    21    32   ar
    44    22    23    1
    45    22    72    1
    46    23    24   ar
    47    23    28   ar
    48    24    25   ar
    49    24    73    1
    50    25    26   ar
    51    25    74    1
    52    26    27   ar
    53    26    31    1
    54    27    28   ar
    55    27    29    1
    56    28    75    1
    57    29    30    1
    58    29    76    1
    59    29    77    1
    60    30    31    1
    61    31    78    1
    62    31    79    1
    63    33    34   ar
    64    33    38   ar
    65    34    35   ar
    66    34    80    1
    67    35    36   ar
    68    35    81    1
    69    36    37   ar
    70    36    82    1
    71    37    38   ar
    72    37    83    1
    73    39    40    1
    74    39    55   ar
    75    40    41   ar
    76    40    54   ar
    77    41    42   ar
    78    41    84    1
    79    42    43   ar
    80    42    85    1
    81    43    44    1
    82    43    53   ar
    83    44    45    1
    84    45    46    1
    85    45    86    1
    86    45    87    1
    87    46    47    1
    88    46    88    1
    89    46    89    1
    90    47    48    1
    91    47    52    1
    92    48    49    1
    93    48    90    1
    94    48    91    1
    95    49    50    1
    96    49    92    1
    97    49    93    1
    98    50    51    1
    99    51    52    1
   100    51    94    1
   101    51    95    1
   102    52    96    1
   103    52    97    1
   104    53    54   ar
   105    53    98    1
   106    54    99    1
@<TRIPOS>MOLECULE
AD3CC00205883-I00-C00
 105 112 0 0 0
SMALL
GASTEIGER

@<TRIPOS>ATOM
      1 C          -4.0100   -2.2950   -6.6390 C.3     1  UNL1       -0.0546
      2 C          -3.3330   -3.5720   -6.1020 C.3     1  UNL1        0.0063
      3 C          -2.6960   -4.3040   -7.3010 C.3     1  UNL1       -0.0546
      4 C          -4.4090   -4.4970   -5.4970 C.3     1  UNL1       -0.0546
      5 C          -2.3020   -3.2100   -5.0440 C.ar    1  UNL1        0.0706
      6 C          -0.9070   -3.4320   -5.0430 C.ar    1  UNL1        0.0021
      7 C          -0.4370   -2.8370   -3.8920 C.ar    1  UNL1        0.1299
      8 N           0.8990   -2.6660   -3.5400 N.am    1  UNL1       -0.2538
      9 C           1.3310   -1.4350   -3.0320 C.2     1  UNL1        0.3092
     10 O           0.6340   -0.4290   -3.0090 O.2     1  UNL1       -0.2521
     11 N           2.6360   -1.5710   -2.5810 N.am    1  UNL1       -0.2686
     12 C           3.5390   -0.5610   -2.1560 C.ar    1  UNL1        0.0427
     13 C           3.3330    0.7760   -2.5120 C.ar    1  UNL1       -0.0363
     14 C           4.2730    1.7550   -2.1910 C.ar    1  UNL1       -0.0169
     15 C           5.4230    1.4120   -1.4830 C.ar    1  UNL1        0.1381
     16 O           6.3980    2.3660   -1.2640 O.3     1  UNL1       -0.4373
     17 C           6.1710    3.3040   -0.2590 C.ar    1  UNL1        0.2249
     18 C           7.2560    4.0470    0.1280 C.ar    1  UNL1        0.0186
     19 C           6.9980    4.9880    1.0900 C.ar    1  UNL1        0.0362
     20 N           5.7800    5.1950    1.6250 N.ar    1  UNL1       -0.2225
     21 C           4.7730    4.4250    1.1760 C.ar    1  UNL1        0.2226
     22 N           3.5060    4.7280    1.6850 N.pl3   1  UNL1       -0.2835
     23 C           2.2400    4.3520    1.2010 C.ar    1  UNL1        0.0356
     24 C           1.1430    5.2270    1.3880 C.ar    1  UNL1       -0.0401
     25 C          -0.1200    4.9620    0.8370 C.ar    1  UNL1       -0.0538
     26 C          -0.2680    3.8120    0.0860 C.ar    1  UNL1       -0.0073
     27 C           0.7980    2.9210   -0.0750 C.ar    1  UNL1        0.0733
     28 C           2.0310    3.1640    0.4920 C.ar    1  UNL1       -0.0146
     29 N           0.4930    1.8410   -0.9120 N.2     1  UNL1       -0.2164
     30 C          -0.7250    2.0530   -1.2890 C.2     1  UNL1        0.1979
     31 O          -1.3210    1.2600   -2.1660 O.2     1  UNL1       -0.4948
     32 C          -1.4310    3.2710   -0.7110 C.3     1  UNL1        0.0676
     33 C          -1.8630    4.2250   -1.8210 C.3     1  UNL1       -0.0472
     34 C          -2.5950    2.8490    0.1840 C.3     1  UNL1       -0.0472
     35 N           4.9430    3.4750    0.2490 N.ar    1  UNL1       -0.1789
     36 C           5.6700    0.0770   -1.1010 C.ar    1  UNL1        0.0262
     37 C           6.8490   -0.2760   -0.4090 C.ar    1  UNL1       -0.0505
     38 C           7.1000   -1.5850   -0.0100 C.ar    1  UNL1       -0.0611
     39 C           6.1790   -2.5750   -0.3000 C.ar    1  UNL1       -0.0611
     40 C           5.0070   -2.2520   -0.9910 C.ar    1  UNL1       -0.0521
     41 C           4.7170   -0.9300   -1.4250 C.ar    1  UNL1        0.0069
     42 N          -1.5700   -2.4700   -3.1600 N.ar    1  UNL1       -0.2181
     43 C          -1.7220   -2.1910   -1.7680 C.ar    1  UNL1        0.0677
     44 C          -0.7280   -2.5200   -0.8380 C.ar    1  UNL1       -0.0327
     45 C          -0.9210   -2.2550    0.5200 C.ar    1  UNL1       -0.0179
     46 C          -2.1220   -1.7040    0.9600 C.ar    1  UNL1        0.1207
     47 O          -2.2420   -1.4800    2.3030 O.3     1  UNL1       -0.4907
     48 C          -3.3750   -2.1510    2.8720 C.3     1  UNL1        0.1022
     49 C          -3.1520   -2.3060    4.3880 C.3     1  UNL1        0.0333
     50 N          -3.1480   -1.0340    5.1370 N.3     1  UNL1       -0.2948
     51 C          -4.4990   -0.4520    5.2660 C.3     1  UNL1        0.0225
     52 C          -4.4720    0.8340    6.1090 C.3     1  UNL1        0.0604
     53 O          -3.9310    0.5900    7.4140 O.3     1  UNL1       -0.3772
     54 C          -2.5960    0.0760    7.2970 C.3     1  UNL1        0.0604
     55 C          -2.5820   -1.2300    6.4880 C.3     1  UNL1        0.0225
     56 C          -3.1200   -1.3660    0.0490 C.ar    1  UNL1       -0.0179
     57 C          -2.9240   -1.6210   -1.3110 C.ar    1  UNL1       -0.0327
     58 N          -2.6880   -2.5740   -3.9330 N.ar    1  UNL1       -0.1691
     59 H          -4.5390   -1.7520   -5.8470 H       1  UNL1        0.0239
     60 H          -3.2720   -1.6100   -7.0710 H       1  UNL1        0.0239
     61 H          -4.7430   -2.5320   -7.4180 H       1  UNL1        0.0239
     62 H          -1.9390   -3.6820   -7.7920 H       1  UNL1        0.0239
     63 H          -3.4510   -4.5610   -8.0530 H       1  UNL1        0.0239
     64 H          -2.2090   -5.2360   -6.9890 H       1  UNL1        0.0239
     65 H          -5.1530   -4.7920   -6.2480 H       1  UNL1        0.0239
     66 H          -3.9580   -5.4110   -5.0940 H       1  UNL1        0.0239
     67 H          -4.9450   -4.0070   -4.6770 H       1  UNL1        0.0239
     68 H          -0.3130   -3.8790   -5.8260 H       1  UNL1        0.0671
     69 H           1.5750   -3.0900   -4.1630 H       1  UNL1        0.1578
     70 H           2.8890   -2.5220   -2.3740 H       1  UNL1        0.1564
     71 H           2.4490    1.0870   -3.0600 H       1  UNL1        0.0637
     72 H           4.0960    2.7850   -2.4890 H       1  UNL1        0.0655
     73 H           8.2370    3.9040   -0.2970 H       1  UNL1        0.0686
     74 H           7.7880    5.6310    1.4720 H       1  UNL1        0.0832
     75 H           3.5600    5.5780    2.2250 H       1  UNL1        0.1550
     76 H           1.2790    6.1540    1.9430 H       1  UNL1        0.0636
     77 H          -0.9380    5.6620    0.9670 H       1  UNL1        0.0622
     78 H           2.8170    2.4320    0.3490 H       1  UNL1        0.0657
     79 H          -0.6530    0.5930   -2.4400 H       1  UNL1        0.2934
     80 H          -2.6520    3.7830   -2.4400 H       1  UNL1        0.0243
     81 H          -1.0280    4.4720   -2.4900 H       1  UNL1        0.0243
     82 H          -2.2470    5.1660   -1.4120 H       1  UNL1        0.0243
     83 H          -3.0290    3.7080    0.7060 H       1  UNL1        0.0243
     84 H          -2.2800    2.1240    0.9450 H       1  UNL1        0.0243
     85 H          -3.3890    2.3740   -0.4020 H       1  UNL1        0.0243
     86 H           7.5870    0.4820   -0.1580 H       1  UNL1        0.0625
     87 H           8.0160   -1.8270    0.5250 H       1  UNL1        0.0618
     88 H           6.3610   -3.5990    0.0170 H       1  UNL1        0.0618
     89 H           4.3170   -3.0700   -1.1660 H       1  UNL1        0.0624
     90 H           0.1940   -3.0090   -1.1250 H       1  UNL1        0.0640
     91 H          -0.1380   -2.4920    1.2360 H       1  UNL1        0.0655
     92 H          -4.2890   -1.5850    2.6610 H       1  UNL1        0.0709
     93 H          -3.4830   -3.1570    2.4400 H       1  UNL1        0.0709
     94 H          -2.1740   -2.7880    4.5140 H       1  UNL1        0.0460
     95 H          -3.9070   -2.9870    4.8010 H       1  UNL1        0.0460
     96 H          -5.1730   -1.1760    5.7440 H       1  UNL1        0.0449
     97 H          -4.9110   -0.2070    4.2840 H       1  UNL1        0.0449
     98 H          -3.8840    1.6210    5.6180 H       1  UNL1        0.0572
     99 H          -5.4920    1.2100    6.2420 H       1  UNL1        0.0572
    100 H          -2.2240   -0.1140    8.3090 H       1  UNL1        0.0572
    101 H          -1.9520    0.8390    6.8420 H       1  UNL1        0.0572
    102 H          -3.1670   -1.9920    7.0260 H       1  UNL1        0.0449
    103 H          -1.5430   -1.5790    6.4130 H       1  UNL1        0.0449
    104 H          -4.0390   -0.8950    0.3810 H       1  UNL1        0.0655
    105 H          -3.7100   -1.3440   -2.0110 H       1  UNL1        0.0640
@<TRIPOS>BOND
     1     2     1    1
     2     1    59    1
     3     1    60    1
     4     1    61    1
     5     2     3    1
     6     2     4    1
     7     2     5    1
     8     3    62    1
     9     3    63    1
    10     3    64    1
    11     4    65    1
    12     4    66    1
    13     4    67    1
    14     5     6   ar
    15     5    58   ar
    16     6     7   ar
    17     6    68    1
    18     7     8    1
    19     7    42   ar
    20     8     9   am
    21     8    69    1
    22     9    10    2
    23     9    11   am
    24    11    12    1
    25    11    70    1
    26    12    13   ar
    27    12    41   ar
    28    13    14   ar
    29    13    71    1
    30    14    15   ar
    31    14    72    1
    32    15    16    1
    33    15    36   ar
    34    16    17    1
    35    17    18   ar
    36    17    35   ar
    37    18    19   ar
    38    18    73    1
    39    19    20   ar
    40    19    74    1
    41    20    21   ar
    42    21    22    1
    43    21    35   ar
    44    22    23    1
    45    22    75    1
    46    23    24   ar
    47    23    28   ar
    48    24    25   ar
    49    24    76    1
    50    25    26   ar
    51    25    77    1
    52    26    27   ar
    53    26    32    1
    54    27    28   ar
    55    27    29    1
    56    28    78    1
    57    29    30    2
    58    30    31    1
    59    30    32    1
    60    31    79    1
    61    32    33    1
    62    32    34    1
    63    33    80    1
    64    33    81    1
    65    33    82    1
    66    34    83    1
    67    34    84    1
    68    34    85    1
    69    36    37   ar
    70    36    41   ar
    71    37    38   ar
    72    37    86    1
    73    38    39   ar
    74    38    87    1
    75    39    40   ar
    76    39    88    1
    77    40    41   ar
    78    40    89    1
    79    42    43    1
    80    42    58   ar
    81    43    44   ar
    82    43    57   ar
    83    44    45   ar
    84    44    90    1
    85    45    46   ar
    86    45    91    1
    87    46    47    1
    88    46    56   ar
    89    47    48    1
    90    48    49    1
    91    48    92    1
    92    48    93    1
    93    49    50    1
    94    49    94    1
    95    49    95    1
    96    50    51    1
    97    50    55    1
    98    51    52    1
    99    51    96    1
   100    51    97    1
   101    52    53    1
   102    52    98    1
   103    52    99    1
   104    53    54    1
   105    54    55    1
   106    54   100    1
   107    54   101    1
   108    55   102    1
   109    55   103    1
   110    56    57   ar
   111    56   104    1
   112    57   105    1
@<TRIPOS>MOLECULE
AD3CC00205945-I00-C00
 96 103 0 0 0
SMALL
GASTEIGER

@<TRIPOS>ATOM
      1 C           4.9830   -3.6260    4.1930 C.3     1  UNL1       -0.0546
      2 C           4.0350   -2.9650    5.2200 C.3     1  UNL1        0.0063
      3 C           4.8410   -1.9550    6.0630 C.3     1  UNL1       -0.0546
      4 C           3.5160   -4.0690    6.1650 C.3     1  UNL1       -0.0546
      5 C           2.8940   -2.2500    4.5120 C.ar    1  UNL1        0.0706
      6 C           1.4980   -2.3960    4.6910 C.ar    1  UNL1        0.0021
      7 C           0.9200   -1.5860    3.7390 C.ar    1  UNL1        0.1299
      8 N          -0.4250   -1.5470    3.3880 N.am    1  UNL1       -0.2538
      9 C          -0.7690   -1.5210    2.0380 C.2     1  UNL1        0.3092
     10 O           0.0320   -1.5910    1.1140 O.2     1  UNL1       -0.2521
     11 N          -2.1450   -1.4010    1.9060 N.am    1  UNL1       -0.2686
     12 C          -2.8460   -1.5020    0.6770 C.ar    1  UNL1        0.0427
     13 C          -2.3290   -2.3120   -0.3440 C.ar    1  UNL1       -0.0363
     14 C          -2.9720   -2.4100   -1.5710 C.ar    1  UNL1       -0.0169
     15 C          -4.1320   -1.6740   -1.7970 C.ar    1  UNL1        0.1381
     16 O          -4.7800   -1.7760   -3.0100 O.3     1  UNL1       -0.4373
     17 C          -4.1220   -1.2860   -4.1420 C.ar    1  UNL1        0.2249
     18 C          -4.8630   -1.3210   -5.2980 C.ar    1  UNL1        0.0186
     19 C          -4.2160   -0.8720   -6.4150 C.ar    1  UNL1        0.0362
     20 N          -2.9470   -0.4270   -6.4010 N.ar    1  UNL1       -0.2225
     21 C          -2.2950   -0.4340   -5.2240 C.ar    1  UNL1        0.2226
     22 N          -0.9770    0.0050   -5.3080 N.pl3   1  UNL1       -0.2835
     23 C           0.0920    0.0920   -4.4110 C.ar    1  UNL1        0.0348
     24 C           0.0170   -0.2510   -3.0590 C.ar    1  UNL1       -0.0384
     25 C           1.1240   -0.1220   -2.1990 C.ar    1  UNL1       -0.0335
     26 C           2.3460    0.3620   -2.6940 C.ar    1  UNL1        0.0783
     27 N           3.5110    0.5570   -1.9700 N.ar    1  UNL1       -0.2474
     28 C           4.4550    1.0100   -2.7690 C.ar    1  UNL1        0.0659
     29 S           4.0130    1.2630   -4.4090 S.2     1  UNL1       -0.0754
     30 C           2.4220    0.7040   -4.0500 C.ar    1  UNL1        0.0407
     31 C           1.3170    0.5820   -4.9100 C.ar    1  UNL1       -0.0246
     32 N          -2.8500   -0.8440   -4.0790 N.ar    1  UNL1       -0.1789
     33 C          -4.7260   -0.9040   -0.7710 C.ar    1  UNL1        0.0262
     34 C          -5.9410   -0.2140   -0.9840 C.ar    1  UNL1       -0.0505
     35 C          -6.5320    0.5530    0.0170 C.ar    1  UNL1       -0.0611
     36 C          -5.9250    0.6460    1.2590 C.ar    1  UNL1       -0.0611
     37 C          -4.7210   -0.0250    1.4920 C.ar    1  UNL1       -0.0521
     38 C          -4.0870   -0.8160    0.4950 C.ar    1  UNL1        0.0069
     39 N           1.9620   -0.8330    3.1910 N.ar    1  UNL1       -0.2181
     40 C           1.9270    0.4190    2.5110 C.ar    1  UNL1        0.0677
     41 C           0.8150    1.2650    2.6060 C.ar    1  UNL1       -0.0327
     42 C           0.8350    2.5100    1.9730 C.ar    1  UNL1       -0.0179
     43 C           1.9500    2.9010    1.2420 C.ar    1  UNL1        0.1207
     44 O           1.9490    4.1430    0.6720 O.3     1  UNL1       -0.4907
     45 C           1.8080    4.0590   -0.7540 C.3     1  UNL1        0.1022
     46 C           0.5470    4.8270   -1.2030 C.3     1  UNL1        0.0333
     47 N          -0.7350    4.2470   -0.7410 N.3     1  UNL1       -0.2948
     48 C          -1.0040    2.9350   -1.3720 C.3     1  UNL1        0.0225
     49 C          -2.3770    2.3710   -0.9690 C.3     1  UNL1        0.0604
     50 O          -3.4340    3.3000   -1.2570 O.3     1  UNL1       -0.3772
     51 C          -3.1910    4.5450   -0.5930 C.3     1  UNL1        0.0604
     52 C          -1.8590    5.1580   -1.0430 C.3     1  UNL1        0.0225
     53 C           3.0680    2.0780    1.1590 C.ar    1  UNL1       -0.0179
     54 C           3.0600    0.8380    1.7990 C.ar    1  UNL1       -0.0327
     55 N           3.1670   -1.3550    3.5540 N.ar    1  UNL1       -0.1691
     56 H           4.4390   -4.3380    3.5590 H       1  UNL1        0.0239
     57 H           5.7940   -4.1630    4.7010 H       1  UNL1        0.0239
     58 H           5.4470   -2.8820    3.5310 H       1  UNL1        0.0239
     59 H           5.2810   -1.1730    5.4310 H       1  UNL1        0.0239
     60 H           5.6600   -2.4500    6.5970 H       1  UNL1        0.0239
     61 H           4.2050   -1.4600    6.8070 H       1  UNL1        0.0239
     62 H           2.8650   -3.6550    6.9450 H       1  UNL1        0.0239
     63 H           2.9400   -4.8290    5.6210 H       1  UNL1        0.0239
     64 H           4.3510   -4.5760    6.6660 H       1  UNL1        0.0239
     65 H           0.9860   -3.0790    5.3560 H       1  UNL1        0.0671
     66 H          -1.0460   -2.1200    3.9460 H       1  UNL1        0.1578
     67 H          -2.5800   -0.8770    2.6480 H       1  UNL1        0.1564
     68 H          -1.4200   -2.8940   -0.1990 H       1  UNL1        0.0637
     69 H          -2.5490   -3.0380   -2.3530 H       1  UNL1        0.0655
     70 H          -5.8800   -1.6830   -5.3220 H       1  UNL1        0.0686
     71 H          -4.7080   -0.8470   -7.3820 H       1  UNL1        0.0832
     72 H          -0.7860    0.2220   -6.2730 H       1  UNL1        0.1550
     73 H          -0.9090   -0.6260   -2.6300 H       1  UNL1        0.0637
     74 H           1.0360   -0.3830   -1.1480 H       1  UNL1        0.0640
     75 H           5.4550    1.2150   -2.4120 H       1  UNL1        0.0907
     76 H           1.4130    0.8640   -5.9590 H       1  UNL1        0.0648
     77 H          -6.4400   -0.2620   -1.9520 H       1  UNL1        0.0625
     78 H          -7.4580    1.0830   -0.1850 H       1  UNL1        0.0618
     79 H          -6.3760    1.2510    2.0420 H       1  UNL1        0.0618
     80 H          -4.2900    0.0940    2.4790 H       1  UNL1        0.0624
     81 H          -0.0580    1.0040    3.1900 H       1  UNL1        0.0640
     82 H          -0.0220    3.1700    2.0400 H       1  UNL1        0.0655
     83 H           1.8070    3.0320   -1.1400 H       1  UNL1        0.0709
     84 H           2.6890    4.5540   -1.1860 H       1  UNL1        0.0709
     85 H           0.5560    4.9170   -2.2980 H       1  UNL1        0.0460
     86 H           0.6270    5.8400   -0.7910 H       1  UNL1        0.0460
     87 H          -0.2480    2.2030   -1.0700 H       1  UNL1        0.0449
     88 H          -0.9660    3.0400   -2.4640 H       1  UNL1        0.0449
     89 H          -2.4010    2.1190    0.0980 H       1  UNL1        0.0572
     90 H          -2.5790    1.4550   -1.5300 H       1  UNL1        0.0572
     91 H          -4.0140    5.2230   -0.8460 H       1  UNL1        0.0572
     92 H          -3.2100    4.3890    0.4920 H       1  UNL1        0.0572
     93 H          -1.9030    5.3560   -2.1210 H       1  UNL1        0.0449
     94 H          -1.7180    6.1160   -0.5280 H       1  UNL1        0.0449
     95 H           3.9450    2.3920    0.6070 H       1  UNL1        0.0655
     96 H           3.9350    0.1950    1.7280 H       1  UNL1        0.0640
@<TRIPOS>BOND
     1     2     1    1
     2     1    56    1
     3     1    57    1
     4     1    58    1
     5     2     3    1
     6     2     4    1
     7     2     5    1
     8     3    59    1
     9     3    60    1
    10     3    61    1
    11     4    62    1
    12     4    63    1
    13     4    64    1
    14     5     6   ar
    15     5    55   ar
    16     6     7   ar
    17     6    65    1
    18     7     8    1
    19     7    39   ar
    20     8     9   am
    21     8    66    1
    22     9    10    2
    23     9    11   am
    24    11    12    1
    25    11    67    1
    26    12    13   ar
    27    12    38   ar
    28    13    14   ar
    29    13    68    1
    30    14    15   ar
    31    14    69    1
    32    15    16    1
    33    15    33   ar
    34    16    17    1
    35    17    18   ar
    36    17    32   ar
    37    18    19   ar
    38    18    70    1
    39    19    20   ar
    40    19    71    1
    41    20    21   ar
    42    21    22    1
    43    21    32   ar
    44    22    23    1
    45    22    72    1
    46    23    24   ar
    47    23    31   ar
    48    24    25   ar
    49    24    73    1
    50    25    26   ar
    51    25    74    1
    52    26    27   ar
    53    26    30   ar
    54    27    28   ar
    55    28    29   ar
    56    28    75    1
    57    29    30   ar
    58    30    31   ar
    59    31    76    1
    60    33    34   ar
    61    33    38   ar
    62    34    35   ar
    63    34    77    1
    64    35    36   ar
    65    35    78    1
    66    36    37   ar
    67    36    79    1
    68    37    38   ar
    69    37    80    1
    70    39    40    1
    71    39    55   ar
    72    40    41   ar
    73    40    54   ar
    74    41    42   ar
    75    41    81    1
    76    42    43   ar
    77    42    82    1
    78    43    44    1
    79    43    53   ar
    80    44    45    1
    81    45    46    1
    82    45    83    1
    83    45    84    1
    84    46    47    1
    85    46    85    1
    86    46    86    1
    87    47    48    1
    88    47    52    1
    89    48    49    1
    90    48    87    1
    91    48    88    1
    92    49    50    1
    93    49    89    1
    94    49    90    1
    95    50    51    1
    96    51    52    1
    97    51    91    1
    98    51    92    1
    99    52    93    1
   100    52    94    1
   101    53    54   ar
   102    53    95    1
   103    54    96    1
@<TRIPOS>MOLECULE
AD3CC00205978-I00-C00
 96 103 0 0 0
SMALL
GASTEIGER

@<TRIPOS>ATOM
      1 C          -4.0730   -7.2590   -2.4290 C.3     1  UNL1       -0.0546
      2 C          -3.8470   -5.8760   -3.0730 C.3     1  UNL1        0.0063
      3 C          -3.2740   -6.0770   -4.4910 C.3     1  UNL1       -0.0546
      4 C          -5.2170   -5.1830   -3.2160 C.3     1  UNL1       -0.0546
      5 C          -2.8850   -5.0640   -2.2190 C.ar    1  UNL1        0.0706
      6 C          -3.1410   -3.9240   -1.4360 C.ar    1  UNL1        0.0021
      7 C          -1.9670   -3.6540   -0.7720 C.ar    1  UNL1        0.1300
      8 N          -1.7320   -2.7890    0.2910 N.am    1  UNL1       -0.2538
      9 C          -2.5960   -1.7650    0.6600 C.2     1  UNL1        0.3092
     10 O          -3.6080   -1.4480    0.0490 O.2     1  UNL1       -0.2521
     11 N          -2.1160   -1.1410    1.8020 N.am    1  UNL1       -0.2686
     12 C          -2.4960    0.1150    2.3420 C.ar    1  UNL1        0.0427
     13 C          -3.2810    1.0030    1.5940 C.ar    1  UNL1       -0.0363
     14 C          -3.5600    2.2790    2.0720 C.ar    1  UNL1       -0.0169
     15 C          -3.0350    2.6890    3.2940 C.ar    1  UNL1        0.1381
     16 O          -3.3180    3.9710    3.7190 O.3     1  UNL1       -0.4373
     17 C          -2.3980    4.9470    3.3360 C.ar    1  UNL1        0.2249
     18 C          -2.3460    6.0670    4.1280 C.ar    1  UNL1        0.0186
     19 C          -1.4320    7.0070    3.7360 C.ar    1  UNL1        0.0362
     20 N          -0.6480    6.8680    2.6500 N.ar    1  UNL1       -0.2225
     21 C          -0.7880    5.7470    1.9170 C.ar    1  UNL1        0.2226
     22 N           0.0100    5.6960    0.7770 N.pl3   1  UNL1       -0.2835
     23 C           0.1320    4.8070   -0.3090 C.ar    1  UNL1        0.0343
     24 C          -0.5150    3.5230   -0.3260 C.ar    1  UNL1       -0.0384
     25 C          -0.4710    2.6050   -1.4060 C.ar    1  UNL1       -0.0322
     26 C           0.2790    3.0570   -2.5010 C.ar    1  UNL1        0.0926
     27 N           0.5420    2.4720   -3.6830 N.ar    1  UNL1       -0.1739
     28 N           1.2920    3.3690   -4.3510 N.ar    1  UNL1       -0.2836
     29 C           1.5700    4.5100   -3.6500 C.ar    1  UNL1        0.0301
     30 C           0.9260    4.3410   -2.4580 C.ar    1  UNL1        0.0212
     31 C           0.9040    5.2570   -1.4140 C.ar    1  UNL1       -0.0298
     32 N          -1.6450    4.7700    2.2340 N.ar    1  UNL1       -0.1789
     33 C          -2.2900    1.8110    4.1100 C.ar    1  UNL1        0.0262
     34 C          -1.8200    2.2050    5.3840 C.ar    1  UNL1       -0.0505
     35 C          -1.0830    1.3470    6.1940 C.ar    1  UNL1       -0.0611
     36 C          -0.8000    0.0690    5.7470 C.ar    1  UNL1       -0.0611
     37 C          -1.2530   -0.3460    4.4930 C.ar    1  UNL1       -0.0521
     38 C          -2.0080    0.5010    3.6350 C.ar    1  UNL1        0.0069
     39 N          -0.9840   -4.4900   -1.3470 N.ar    1  UNL1       -0.2167
     40 C           0.4350   -4.4050   -1.2160 C.ar    1  UNL1        0.0837
     41 C           1.2520   -5.5500   -1.6150 C.ar    1  UNL1       -0.0297
     42 C           2.5890   -5.5370   -1.5360 C.ar    1  UNL1        0.0050
     43 C           3.2970   -4.3390   -1.0290 C.ar    1  UNL1        0.2514
     44 O           4.5230   -4.3430   -0.9640 O.2     1  UNL1       -0.2677
     45 N           2.4820   -3.2720   -0.6600 N.ar    1  UNL1       -0.3120
     46 C           3.1170   -2.0500   -0.1560 C.3     1  UNL1        0.0389
     47 C           3.4250   -1.0420   -1.2770 C.3     1  UNL1        0.0171
     48 N           3.8600    0.2630   -0.7470 N.3     1  UNL1       -0.2963
     49 C           3.7670    1.2970   -1.8030 C.3     1  UNL1        0.0225
     50 C           4.2460    2.6610   -1.2850 C.3     1  UNL1        0.0604
     51 O           5.6050    2.5890   -0.8280 O.3     1  UNL1       -0.3772
     52 C           5.7120    1.6190    0.2210 C.3     1  UNL1        0.0604
     53 C           5.2540    0.2270   -0.2520 C.3     1  UNL1        0.0225
     54 C           1.1010   -3.3060   -0.8020 C.ar    1  UNL1        0.0334
     55 N          -1.6160   -5.4600   -2.0850 N.ar    1  UNL1       -0.1690
     56 H          -3.1370   -7.8240   -2.3550 H       1  UNL1        0.0239
     57 H          -4.4750   -7.1620   -1.4140 H       1  UNL1        0.0239
     58 H          -4.7770   -7.8620   -3.0150 H       1  UNL1        0.0239
     59 H          -3.9690   -6.6440   -5.1230 H       1  UNL1        0.0239
     60 H          -2.3280   -6.6310   -4.4720 H       1  UNL1        0.0239
     61 H          -3.0860   -5.1140   -4.9790 H       1  UNL1        0.0239
     62 H          -5.7110   -5.0600   -2.2450 H       1  UNL1        0.0239
     63 H          -5.1190   -4.1890   -3.6660 H       1  UNL1        0.0239
     64 H          -5.8900   -5.7670   -3.8530 H       1  UNL1        0.0239
     65 H          -4.0930   -3.4350   -1.2900 H       1  UNL1        0.0671
     66 H          -0.8520   -2.8460    0.7760 H       1  UNL1        0.1578
     67 H          -1.4970   -1.7020    2.3590 H       1  UNL1        0.1564
     68 H          -3.6660    0.7450    0.6120 H       1  UNL1        0.0637
     69 H          -4.1550    2.9630    1.4710 H       1  UNL1        0.0655
     70 H          -2.9700    6.1930    5.0000 H       1  UNL1        0.0686
     71 H          -1.2930    7.9310    4.2930 H       1  UNL1        0.0832
     72 H           0.5500    6.5510    0.7260 H       1  UNL1        0.1550
     73 H          -1.0840    3.2080    0.5470 H       1  UNL1        0.0637
     74 H          -0.9800    1.6520   -1.3870 H       1  UNL1        0.0640
     75 H           1.5900    3.1300   -5.2920 H       1  UNL1        0.1882
     76 H           2.1710    5.3020   -4.0700 H       1  UNL1        0.0830
     77 H           1.4000    6.2150   -1.4390 H       1  UNL1        0.0643
     78 H          -2.0330    3.2010    5.7630 H       1  UNL1        0.0625
     79 H          -0.7390    1.6750    7.1700 H       1  UNL1        0.0618
     80 H          -0.2340   -0.6150    6.3720 H       1  UNL1        0.0618
     81 H          -1.0130   -1.3670    4.2120 H       1  UNL1        0.0624
     82 H           0.7450   -6.4320   -2.0000 H       1  UNL1        0.0641
     83 H           3.1970   -6.3790   -1.8420 H       1  UNL1        0.0672
     84 H           4.0400   -2.3260    0.3660 H       1  UNL1        0.0505
     85 H           2.4580   -1.6000    0.5980 H       1  UNL1        0.0505
     86 H           4.1620   -1.4620   -1.9750 H       1  UNL1        0.0444
     87 H           2.4970   -0.8990   -1.8470 H       1  UNL1        0.0444
     88 H           2.7280    1.3930   -2.1310 H       1  UNL1        0.0449
     89 H           4.3740    1.0060   -2.6710 H       1  UNL1        0.0449
     90 H           4.2080    3.4010   -2.0910 H       1  UNL1        0.0572
     91 H           3.6090    3.0240   -0.4680 H       1  UNL1        0.0572
     92 H           5.1230    1.9540    1.0830 H       1  UNL1        0.0572
     93 H           6.7610    1.5790    0.5320 H       1  UNL1        0.0572
     94 H           5.3440   -0.4650    0.5900 H       1  UNL1        0.0449
     95 H           5.9290   -0.1190   -1.0460 H       1  UNL1        0.0449
     96 H           0.6040   -2.3670   -0.5840 H       1  UNL1        0.0831
@<TRIPOS>BOND
     1     2     1    1
     2     1    56    1
     3     1    57    1
     4     1    58    1
     5     2     3    1
     6     2     4    1
     7     2     5    1
     8     3    59    1
     9     3    60    1
    10     3    61    1
    11     4    62    1
    12     4    63    1
    13     4    64    1
    14     5     6   ar
    15     5    55   ar
    16     6     7   ar
    17     6    65    1
    18     7     8    1
    19     7    39   ar
    20     8     9   am
    21     8    66    1
    22     9    10    2
    23     9    11   am
    24    11    12    1
    25    11    67    1
    26    12    13   ar
    27    12    38   ar
    28    13    14   ar
    29    13    68    1
    30    14    15   ar
    31    14    69    1
    32    15    16    1
    33    15    33   ar
    34    16    17    1
    35    17    18   ar
    36    17    32   ar
    37    18    19   ar
    38    18    70    1
    39    19    20   ar
    40    19    71    1
    41    20    21   ar
    42    21    22    1
    43    21    32   ar
    44    22    23    1
    45    22    72    1
    46    23    24   ar
    47    23    31   ar
    48    24    25   ar
    49    24    73    1
    50    25    26   ar
    51    25    74    1
    52    26    27   ar
    53    26    30   ar
    54    27    28   ar
    55    28    29   ar
    56    28    75    1
    57    29    30   ar
    58    29    76    1
    59    30    31   ar
    60    31    77    1
    61    33    34   ar
    62    33    38   ar
    63    34    35   ar
    64    34    78    1
    65    35    36   ar
    66    35    79    1
    67    36    37   ar
    68    36    80    1
    69    37    38   ar
    70    37    81    1
    71    39    40    1
    72    39    55   ar
    73    40    41   ar
    74    40    54   ar
    75    41    42   ar
    76    41    82    1
    77    42    43   ar
    78    42    83    1
    79    43    44    2
    80    43    45   ar
    81    45    46    1
    82    45    54   ar
    83    46    47    1
    84    46    84    1
    85    46    85    1
    86    47    48    1
    87    47    86    1
    88    47    87    1
    89    48    49    1
    90    48    53    1
    91    49    50    1
    92    49    88    1
    93    49    89    1
    94    50    51    1
    95    50    90    1
    96    50    91    1
    97    51    52    1
    98    52    53    1
    99    52    92    1
   100    52    93    1
   101    53    94    1
   102    53    95    1
   103    54    96    1
@<TRIPOS>MOLECULE
AD3CC00212220-I00-C00
 51 55 0 0 0
SMALL
GASTEIGER

@<TRIPOS>ATOM
      1 C          -3.9730    1.3580    2.3400 C.3     1  UNL1       -0.0223
      2 C          -3.2540    0.1350    1.8530 C.ar    1  UNL1        0.0390
      3 C          -3.9560   -1.0410    1.6160 C.ar    1  UNL1       -0.0406
      4 C          -3.2580   -2.1530    1.1610 C.ar    1  UNL1       -0.0580
      5 C          -1.8850   -2.0590    0.9540 C.ar    1  UNL1       -0.0341
      6 C          -1.2460   -0.8480    1.2040 C.ar    1  UNL1        0.0918
      7 C           0.2040   -0.6930    0.9770 C.ar    1  UNL1        0.1186
      8 N           0.9800   -1.7530    0.6640 N.ar    1  UNL1       -0.1687
      9 N           2.2160   -1.2470    0.5030 N.ar    1  UNL1       -0.2641
     10 C           3.3070   -2.1380    0.1340 C.3     1  UNL1        0.0864
     11 C           4.1100   -1.6300   -1.0460 C.2     1  UNL1        0.0746
     12 S           5.7370   -1.2370   -0.8190 S.2     1  UNL1       -0.0381
     13 N           3.6260   -1.4290   -2.3040 N.am    1  UNL1       -0.3105
     14 C           2.3890   -1.6720   -2.9330 C.ar    1  UNL1        0.0327
     15 C           2.1920   -1.0360   -4.1680 C.ar    1  UNL1       -0.0405
     16 C           0.9980   -1.1860   -4.8800 C.ar    1  UNL1       -0.0588
     17 C          -0.0160   -1.9890   -4.3690 C.ar    1  UNL1       -0.0442
     18 C           0.1750   -2.6520   -3.1550 C.ar    1  UNL1        0.0535
     19 C          -0.8590   -3.4970   -2.6300 C.1     1  UNL1        0.0992
     20 N          -1.6940   -4.1860   -2.2110 N.1     1  UNL1       -0.1909
     21 C           1.3810   -2.5020   -2.4500 C.ar    1  UNL1       -0.0231
     22 C           2.2960    0.0850    0.7720 C.ar    1  UNL1        0.0344
     23 C           1.0080    0.4900    1.0450 C.ar    1  UNL1        0.0304
     24 C           0.6410    1.8430    1.3240 C.ar    1  UNL1        0.0040
     25 C           1.2000    2.5400    2.4900 C.ar    1  UNL1       -0.0490
     26 C           0.8720    3.8100    2.7950 C.ar    1  UNL1       -0.0168
     27 C          -0.0390    4.5160    1.9660 C.ar    1  UNL1        0.1557
     28 N          -0.5200    5.7370    2.0240 N.ar    1  UNL1       -0.2149
     29 C          -1.3360    5.7890    0.9350 C.ar    1  UNL1        0.1390
     30 N          -1.3950    4.6830    0.1920 N.ar    1  UNL1       -0.1535
     31 N          -0.5580    3.8450    0.8560 N.ar    1  UNL1       -0.2198
     32 C          -0.2150    2.5340    0.5430 C.ar    1  UNL1        0.0393
     33 N          -1.9190    0.2410    1.6550 N.ar    1  UNL1       -0.2503
     34 H          -4.7250    1.6700    1.6090 H       1  UNL1        0.0292
     35 H          -4.4630    1.1530    3.2970 H       1  UNL1        0.0292
     36 H          -3.2740    2.1880    2.4870 H       1  UNL1        0.0292
     37 H          -5.0270   -1.0950    1.7810 H       1  UNL1        0.0635
     38 H          -3.7750   -3.0880    0.9620 H       1  UNL1        0.0619
     39 H          -1.3320   -2.9220    0.5970 H       1  UNL1        0.0639
     40 H           2.9120   -3.1340   -0.0770 H       1  UNL1        0.0577
     41 H           3.9260   -2.2320    1.0340 H       1  UNL1        0.0577
     42 H           4.3130   -0.9610   -2.8910 H       1  UNL1        0.1524
     43 H           2.9600   -0.3900   -4.5900 H       1  UNL1        0.0636
     44 H           0.8610   -0.6700   -5.8270 H       1  UNL1        0.0619
     45 H          -0.9470   -2.1000   -4.9220 H       1  UNL1        0.0630
     46 H           1.4920   -3.0750   -1.5400 H       1  UNL1        0.0649
     47 H           3.2280    0.6310    0.7200 H       1  UNL1        0.0833
     48 H           1.8860    1.9890    3.1280 H       1  UNL1        0.0625
     49 H           1.2830    4.3120    3.6640 H       1  UNL1        0.0655
     50 H          -1.9080    6.6690    0.6700 H       1  UNL1        0.1066
     51 H          -0.6910    2.1230   -0.3380 H       1  UNL1        0.0837
@<TRIPOS>BOND
     1     1     2    1
     2     1    34    1
     3     1    35    1
     4     1    36    1
     5     2     3   ar
     6     2    33   ar
     7     3     4   ar
     8     3    37    1
     9     4     5   ar
    10     4    38    1
    11     5     6   ar
    12     5    39    1
    13     6     7    1
    14     6    33   ar
    15     7     8   ar
    16     7    23   ar
    17     8     9   ar
    18     9    10    1
    19     9    22   ar
    20    10    11    1
    21    10    40    1
    22    10    41    1
    23    11    12    2
    24    11    13    1
    25    13    14    1
    26    13    42    1
    27    14    15   ar
    28    14    21   ar
    29    15    16   ar
    30    15    43    1
    31    16    17   ar
    32    16    44    1
    33    17    18   ar
    34    17    45    1
    35    18    19    1
    36    18    21   ar
    37    19    20    3
    38    21    46    1
    39    22    23   ar
    40    22    47    1
    41    23    24    1
    42    24    25   ar
    43    24    32   ar
    44    25    26   ar
    45    25    48    1
    46    26    27   ar
    47    26    49    1
    48    27    28   ar
    49    27    31   ar
    50    28    29   ar
    51    29    30   ar
    52    29    50    1
    53    30    31   ar
    54    31    32   ar
    55    32    51    1
@<TRIPOS>MOLECULE
AD3CC00240025-I00-C00
 80 86 0 0 0
SMALL
GASTEIGER

@<TRIPOS>ATOM
      1 C          -5.0060    2.5930    6.7890 C.3     1  UNL1       -0.0397
      2 C          -4.5010    2.6870    5.3790 C.ar    1  UNL1       -0.0503
      3 C          -4.6180    3.8780    4.6560 C.ar    1  UNL1       -0.0568
      4 C          -4.1730    3.9500    3.3330 C.ar    1  UNL1       -0.0359
      5 C          -3.5900    2.8320    2.7180 C.ar    1  UNL1        0.0674
      6 N          -3.1400    2.9390    1.3680 N.ar    1  UNL1       -0.2181
      7 N          -3.6470    3.9190    0.5740 N.ar    1  UNL1       -0.1691
      8 C          -3.2480    3.6120   -0.6660 C.ar    1  UNL1        0.0706
      9 C          -3.7000    4.4550   -1.8490 C.3     1  UNL1        0.0063
     10 C          -2.9960    5.8270   -1.8100 C.3     1  UNL1       -0.0546
     11 C          -5.2270    4.6760   -1.8060 C.3     1  UNL1       -0.0546
     12 C          -3.3650    3.7790   -3.1950 C.3     1  UNL1       -0.0546
     13 C          -2.3650    2.5100   -0.6500 C.ar    1  UNL1        0.0021
     14 C          -2.2140    2.1570    0.6740 C.ar    1  UNL1        0.1299
     15 N          -1.3310    1.2630    1.2750 N.am    1  UNL1       -0.2538
     16 C          -0.3270    0.5990    0.5800 C.2     1  UNL1        0.3092
     17 O          -0.0920    0.7280   -0.6150 O.2     1  UNL1       -0.2521
     18 N           0.3500   -0.2600    1.4360 N.am    1  UNL1       -0.2686
     19 C           1.5250   -1.0010    1.1370 C.ar    1  UNL1        0.0427
     20 C           2.3800   -0.5750    0.1110 C.ar    1  UNL1       -0.0363
     21 C           3.5300   -1.2900   -0.2010 C.ar    1  UNL1       -0.0169
     22 C           3.8290   -2.4540    0.5020 C.ar    1  UNL1        0.1381
     23 O           4.9670   -3.1500    0.1470 O.3     1  UNL1       -0.4373
     24 C           4.8230   -4.0420   -0.9170 C.ar    1  UNL1        0.2249
     25 C           5.8950   -4.8600   -1.1670 C.ar    1  UNL1        0.0186
     26 C           5.7210   -5.7310   -2.2080 C.ar    1  UNL1        0.0362
     27 N           4.5960   -5.7930   -2.9460 N.ar    1  UNL1       -0.2225
     28 C           3.6010   -4.9420   -2.6350 C.ar    1  UNL1        0.2226
     29 N           2.4710   -5.0370   -3.4410 N.pl3   1  UNL1       -0.2829
     30 C           1.2660   -4.3330   -3.5140 C.ar    1  UNL1        0.0443
     31 C           0.9340   -3.2670   -2.6540 C.ar    1  UNL1       -0.0397
     32 C          -0.2700   -2.5610   -2.7510 C.ar    1  UNL1       -0.0580
     33 C          -1.2210   -2.8900   -3.7140 C.ar    1  UNL1       -0.0362
     34 C          -0.9050   -3.9490   -4.5650 C.ar    1  UNL1        0.0675
     35 N          -1.6070   -4.5150   -5.5970 N.ar    1  UNL1       -0.2769
     36 N          -0.9730   -5.5340   -6.2030 N.ar    1  UNL1       -0.1811
     37 C           0.1770   -5.6170   -5.5300 C.ar    1  UNL1        0.0587
     38 C           0.2900   -4.6610   -4.4890 C.ar    1  UNL1        0.0406
     39 N           3.6840   -4.0660   -1.6310 N.ar    1  UNL1       -0.1789
     40 C           3.0320   -2.8900    1.5810 C.ar    1  UNL1        0.0262
     41 C           3.3740   -4.0410    2.3270 C.ar    1  UNL1       -0.0505
     42 C           2.5880   -4.4870    3.3850 C.ar    1  UNL1       -0.0611
     43 C           1.4390   -3.7910    3.7210 C.ar    1  UNL1       -0.0611
     44 C           1.0810   -2.6500    2.9980 C.ar    1  UNL1       -0.0521
     45 C           1.8580   -2.1590    1.9140 C.ar    1  UNL1        0.0069
     46 C          -3.5120    1.6260    3.4260 C.ar    1  UNL1       -0.0359
     47 C          -3.9620    1.5590    4.7490 C.ar    1  UNL1       -0.0568
     48 H          -5.1580    3.5850    7.2250 H       1  UNL1        0.0278
     49 H          -5.9590    2.0560    6.8090 H       1  UNL1        0.0278
     50 H          -4.2840    2.0650    7.4200 H       1  UNL1        0.0278
     51 H          -5.0600    4.7610    5.1130 H       1  UNL1        0.0621
     52 H          -4.2760    4.8930    2.7970 H       1  UNL1        0.0639
     53 H          -3.2390    6.3770   -0.8930 H       1  UNL1        0.0239
     54 H          -1.9060    5.7130   -1.8450 H       1  UNL1        0.0239
     55 H          -3.2960    6.4510   -2.6590 H       1  UNL1        0.0239
     56 H          -5.7640    3.7200   -1.8050 H       1  UNL1        0.0239
     57 H          -5.5330    5.2260   -0.9080 H       1  UNL1        0.0239
     58 H          -5.5700    5.2520   -2.6730 H       1  UNL1        0.0239
     59 H          -3.7240    4.3770   -4.0400 H       1  UNL1        0.0239
     60 H          -2.2830    3.6510   -3.3240 H       1  UNL1        0.0239
     61 H          -3.8280    2.7880   -3.2700 H       1  UNL1        0.0239
     62 H          -1.8410    2.0850   -1.4950 H       1  UNL1        0.0671
     63 H          -1.2260    1.3160    2.2780 H       1  UNL1        0.1578
     64 H          -0.1960   -0.5710    2.2210 H       1  UNL1        0.1564
     65 H           2.1750    0.3230   -0.4640 H       1  UNL1        0.0637
     66 H           4.1710   -0.9580   -1.0130 H       1  UNL1        0.0655
     67 H           6.8030   -4.8230   -0.5830 H       1  UNL1        0.0686
     68 H           6.5010   -6.4310   -2.4930 H       1  UNL1        0.0832
     69 H           2.6150   -5.7690   -4.1200 H       1  UNL1        0.1551
     70 H           1.6240   -2.9540   -1.8770 H       1  UNL1        0.0636
     71 H          -0.4580   -1.7370   -2.0630 H       1  UNL1        0.0619
     72 H          -2.1530   -2.3420   -3.7910 H       1  UNL1        0.0639
     73 H          -2.5240   -4.2490   -5.9370 H       1  UNL1        0.1889
     74 H           0.8930   -6.3740   -5.8210 H       1  UNL1        0.0854
     75 H           4.2690   -4.6080    2.0810 H       1  UNL1        0.0625
     76 H           2.8720   -5.3780    3.9390 H       1  UNL1        0.0618
     77 H           0.8150   -4.1350    4.5420 H       1  UNL1        0.0618
     78 H           0.1660   -2.1570    3.3070 H       1  UNL1        0.0624
     79 H          -3.1760    0.7060    2.9590 H       1  UNL1        0.0639
     80 H          -3.9120    0.6110    5.2830 H       1  UNL1        0.0621
@<TRIPOS>BOND
     1     1     2    1
     2     1    48    1
     3     1    49    1
     4     1    50    1
     5     2     3   ar
     6     2    47   ar
     7     3     4   ar
     8     3    51    1
     9     4     5   ar
    10     4    52    1
    11     5     6    1
    12     5    46   ar
    13     6     7   ar
    14     6    14   ar
    15     7     8   ar
    16     8     9    1
    17     8    13   ar
    18     9    10    1
    19     9    11    1
    20     9    12    1
    21    10    53    1
    22    10    54    1
    23    10    55    1
    24    11    56    1
    25    11    57    1
    26    11    58    1
    27    12    59    1
    28    12    60    1
    29    12    61    1
    30    13    14   ar
    31    13    62    1
    32    14    15    1
    33    15    16   am
    34    15    63    1
    35    16    17    2
    36    16    18   am
    37    18    19    1
    38    18    64    1
    39    19    20   ar
    40    19    45   ar
    41    20    21   ar
    42    20    65    1
    43    21    22   ar
    44    21    66    1
    45    22    23    1
    46    22    40   ar
    47    23    24    1
    48    24    25   ar
    49    24    39   ar
    50    25    26   ar
    51    25    67    1
    52    26    27   ar
    53    26    68    1
    54    27    28   ar
    55    28    29    1
    56    28    39   ar
    57    29    30    1
    58    29    69    1
    59    30    31   ar
    60    30    38   ar
    61    31    32   ar
    62    31    70    1
    63    32    33   ar
    64    32    71    1
    65    33    34   ar
    66    33    72    1
    67    34    35   ar
    68    34    38   ar
    69    35    36   ar
    70    35    73    1
    71    36    37   ar
    72    37    38   ar
    73    37    74    1
    74    40    41   ar
    75    40    45   ar
    76    41    42   ar
    77    41    75    1
    78    42    43   ar
    79    42    76    1
    80    43    44   ar
    81    43    77    1
    82    44    45   ar
    83    44    78    1
    84    46    47   ar
    85    46    79    1
    86    47    80    1
@<TRIPOS>MOLECULE
AD3CC00245857-I00-C01
 46 48 0 0 0
SMALL
GASTEIGER

@<TRIPOS>ATOM
      1 C          -1.3020    0.0260    4.0360 C.3     1  UNL1       -0.0649
      2 C          -0.7730   -0.7060    2.8120 C.3     1  UNL1       -0.0505
      3 C           0.5830   -0.1480    2.3710 C.3     1  UNL1       -0.0098
      4 C           1.1590   -0.9150    1.2170 C.ar    1  UNL1        0.0570
      5 C           0.8150   -0.8060   -0.1320 C.ar    1  UNL1        0.0780
      6 C          -0.2570    0.0050   -0.7140 C.2     1  UNL1        0.2515
      7 O          -0.7260    0.9630   -0.1140 O.2     1  UNL1       -0.2697
      8 N          -0.6790   -0.4470   -1.9550 N.am    1  UNL1       -0.2811
      9 C          -1.6560    0.1250   -2.8060 C.ar    1  UNL1        0.0378
     10 C          -2.2720    1.3530   -2.5300 C.ar    1  UNL1       -0.0228
     11 C          -3.2310    1.8910   -3.3970 C.ar    1  UNL1        0.0535
     12 C          -3.8510    3.1490   -3.0950 C.1     1  UNL1        0.0992
     13 N          -4.3600    4.1670   -2.8670 N.1     1  UNL1       -0.1909
     14 C          -3.5830    1.2040   -4.5570 C.ar    1  UNL1       -0.0440
     15 C          -2.9760   -0.0150   -4.8500 C.ar    1  UNL1       -0.0559
     16 C          -2.0120   -0.5660   -3.9880 C.ar    1  UNL1       -0.0292
     17 C          -1.3970   -1.8890   -4.3670 C.3     1  UNL1       -0.0380
     18 C           1.7780   -1.5860   -0.7920 C.ar    1  UNL1        0.0622
     19 N           2.6300   -2.1740    0.0360 N.ar    1  UNL1       -0.1738
     20 N           2.2140   -1.8310    1.2880 N.ar    1  UNL1       -0.2360
     21 C           2.8810   -2.4350    2.4030 C.ar    1  UNL1        0.0657
     22 C           2.3320   -2.4800    3.6880 C.ar    1  UNL1       -0.0363
     23 C           3.0290   -3.0900    4.7380 C.ar    1  UNL1       -0.0598
     24 C           4.2740   -3.6720    4.5150 C.ar    1  UNL1       -0.0616
     25 C           4.8230   -3.6560    3.2370 C.ar    1  UNL1       -0.0598
     26 C           4.1290   -3.0490    2.1870 C.ar    1  UNL1       -0.0363
     27 H          -0.6180   -0.0850    4.8840 H       1  UNL1        0.0230
     28 H          -1.4270    1.0940    3.8310 H       1  UNL1        0.0230
     29 H          -2.2750   -0.3800    4.3300 H       1  UNL1        0.0230
     30 H          -1.5040   -0.6120    2.0010 H       1  UNL1        0.0266
     31 H          -0.7010   -1.7760    3.0360 H       1  UNL1        0.0266
     32 H           0.4580    0.9010    2.0740 H       1  UNL1        0.0328
     33 H           1.2850   -0.0970    3.2080 H       1  UNL1        0.0328
     34 H          -0.2960   -1.3290   -2.2570 H       1  UNL1        0.1551
     35 H          -2.0180    1.9260   -1.6420 H       1  UNL1        0.0649
     36 H          -4.3280    1.6120   -5.2390 H       1  UNL1        0.0630
     37 H          -3.2630   -0.5370   -5.7620 H       1  UNL1        0.0621
     38 H          -1.6080   -2.6400   -3.5990 H       1  UNL1        0.0278
     39 H          -0.3150   -1.7820   -4.4930 H       1  UNL1        0.0278
     40 H          -1.8010   -2.2670   -5.3130 H       1  UNL1        0.0278
     41 H           1.9190   -1.7380   -1.8550 H       1  UNL1        0.0856
     42 H           1.3480   -2.0960    3.9170 H       1  UNL1        0.0639
     43 H           2.5900   -3.1210    5.7330 H       1  UNL1        0.0618
     44 H           4.8110   -4.1450    5.3330 H       1  UNL1        0.0618
     45 H           5.7900   -4.1160    3.0530 H       1  UNL1        0.0618
     46 H           4.5880   -3.0510    1.1990 H       1  UNL1        0.0639
@<TRIPOS>BOND
     1     1     2    1
     2     1    27    1
     3     1    28    1
     4     1    29    1
     5     2     3    1
     6     2    30    1
     7     2    31    1
     8     3     4    1
     9     3    32    1
    10     3    33    1
    11     4     5   ar
    12     4    20   ar
    13     5     6    1
    14     5    18   ar
    15     6     7    2
    16     6     8   am
    17     8     9    1
    18     8    34    1
    19     9    10   ar
    20     9    16   ar
    21    10    11   ar
    22    10    35    1
    23    11    12    1
    24    11    14   ar
    25    12    13    3
    26    14    15   ar
    27    14    36    1
    28    15    16   ar
    29    15    37    1
    30    16    17    1
    31    17    38    1
    32    17    39    1
    33    17    40    1
    34    18    19   ar
    35    18    41    1
    36    19    20   ar
    37    20    21    1
    38    21    22   ar
    39    21    26   ar
    40    22    23   ar
    41    22    42    1
    42    23    24   ar
    43    23    43    1
    44    24    25   ar
    45    24    44    1
    46    25    26   ar
    47    25    45    1
    48    26    46    1
@<TRIPOS>MOLECULE
AD3CC00249651-I00-C00
 63 67 0 0 0
SMALL
GASTEIGER

@<TRIPOS>ATOM
      1 C           2.9860   -8.3470    0.5680 C.3     1  UNL1        0.0788
      2 O           3.3640   -7.0600    1.0430 O.3     1  UNL1       -0.4951
      3 C           2.4090   -6.0840    1.0050 C.ar    1  UNL1        0.1203
      4 C           2.8350   -4.8310    1.4420 C.ar    1  UNL1       -0.0161
      5 C           1.9580   -3.7390    1.4570 C.ar    1  UNL1       -0.0129
      6 C           0.6260   -3.8760    1.0480 C.ar    1  UNL1        0.1300
      7 N          -0.2790   -2.7810    1.0530 N.am    1  UNL1       -0.1145
      8 C          -1.2720   -2.6190    0.1090 C.2     1  UNL1        0.3836
      9 O          -1.6540   -3.3400   -0.7960 O.2     1  UNL1       -0.2370
     10 C          -1.7930   -1.2520    0.4040 C.2     1  UNL1        0.2633
     11 C          -2.7550   -0.6880   -0.3380 C.2     1  UNL1        0.0039
     12 C          -3.3350    0.6510   -0.1560 C.ar    1  UNL1       -0.0205
     13 C          -3.5500    1.2200    1.1020 C.ar    1  UNL1       -0.0510
     14 C          -4.1360    2.4840    1.2200 C.ar    1  UNL1       -0.0194
     15 C          -4.5310    3.1970    0.0870 C.ar    1  UNL1        0.1212
     16 O          -5.0650    4.4290    0.3490 O.3     1  UNL1       -0.4828
     17 C          -5.6230    5.1600   -0.7380 C.3     1  UNL1        0.1655
     18 C          -4.6070    5.9290   -1.5940 C.2     1  UNL1        0.2548
     19 O          -4.9120    6.3330   -2.7120 O.2     1  UNL1       -0.2717
     20 N          -3.3960    6.1130   -0.9490 N.am    1  UNL1       -0.2827
     21 C          -2.2520    6.7770   -1.4240 C.ar    1  UNL1        0.0336
     22 C          -1.1190    6.7660   -0.5990 C.ar    1  UNL1       -0.0391
     23 C           0.0600    7.4040   -0.9960 C.ar    1  UNL1       -0.0416
     24 C           0.1100    8.0580   -2.2230 C.ar    1  UNL1        0.0411
     25 CL          1.5590    8.8440   -2.7160 Cl      1  UNL1       -0.0835
     26 C          -1.0080    8.0790   -3.0520 C.ar    1  UNL1       -0.0416
     27 C          -2.1870    7.4390   -2.6520 C.ar    1  UNL1       -0.0391
     28 C          -4.3330    2.6330   -1.1710 C.ar    1  UNL1       -0.0194
     29 C          -3.7460    1.3660   -1.2890 C.ar    1  UNL1       -0.0510
     30 N          -1.1330   -0.7220    1.4840 N.2     1  UNL1       -0.0328
     31 C          -0.2890   -1.6500    1.8370 C.2     1  UNL1        0.3337
     32 C           0.5240   -1.4800    3.0560 C.ar    1  UNL1        0.0665
     33 C           1.2180   -0.2800    3.2410 C.ar    1  UNL1       -0.0468
     34 C           1.9710   -0.0860    4.3990 C.ar    1  UNL1       -0.0609
     35 C           2.0150   -1.0810    5.3770 C.ar    1  UNL1       -0.0617
     36 C           1.2980   -2.2670    5.2060 C.ar    1  UNL1       -0.0609
     37 C           0.5420   -2.4650    4.0500 C.ar    1  UNL1       -0.0468
     38 C           0.2180   -5.1390    0.5910 C.ar    1  UNL1       -0.0129
     39 C           1.0950   -6.2330    0.5750 C.ar    1  UNL1       -0.0161
     40 H           2.6980   -8.3090   -0.4880 H       1  UNL1        0.0660
     41 H           2.1860   -8.7740    1.1820 H       1  UNL1        0.0660
     42 H           3.8570   -9.0030    0.6520 H       1  UNL1        0.0660
     43 H           3.8660   -4.6950    1.7630 H       1  UNL1        0.0655
     44 H           2.3690   -2.7780    1.7550 H       1  UNL1        0.0659
     45 H          -3.1520   -1.2490   -1.1830 H       1  UNL1        0.0669
     46 H          -3.2660    0.6890    2.0080 H       1  UNL1        0.0625
     47 H          -4.2870    2.9090    2.2100 H       1  UNL1        0.0654
     48 H          -6.2470    4.5220   -1.3740 H       1  UNL1        0.0795
     49 H          -6.2870    5.9140   -0.3000 H       1  UNL1        0.0795
     50 H          -3.3200    5.6590   -0.0430 H       1  UNL1        0.1549
     51 H          -1.1370    6.2570    0.3620 H       1  UNL1        0.0636
     52 H           0.9300    7.3840   -0.3460 H       1  UNL1        0.0633
     53 H          -0.9750    8.5890   -4.0120 H       1  UNL1        0.0633
     54 H          -3.0380    7.4800   -3.3250 H       1  UNL1        0.0636
     55 H          -4.6110    3.1430   -2.0880 H       1  UNL1        0.0654
     56 H          -3.6020    0.9480   -2.2840 H       1  UNL1        0.0625
     57 H           1.1730    0.5030    2.4870 H       1  UNL1        0.0626
     58 H           2.5180    0.8420    4.5440 H       1  UNL1        0.0618
     59 H           2.6000   -0.9270    6.2810 H       1  UNL1        0.0618
     60 H           1.3230   -3.0320    5.9780 H       1  UNL1        0.0618
     61 H          -0.0290   -3.3830    3.9370 H       1  UNL1        0.0626
     62 H          -0.8040   -5.3100    0.2570 H       1  UNL1        0.0659
     63 H           0.7120   -7.1840    0.2180 H       1  UNL1        0.0655
@<TRIPOS>BOND
     1     1     2    1
     2     1    40    1
     3     1    41    1
     4     1    42    1
     5     2     3    1
     6     3     4   ar
     7     3    39   ar
     8     4     5   ar
     9     4    43    1
    10     5     6   ar
    11     5    44    1
    12     6     7    1
    13     6    38   ar
    14     7     8   am
    15     7    31    1
    16     8     9    2
    17     8    10    1
    18    10    11    2
    19    10    30    1
    20    11    12    1
    21    11    45    1
    22    12    13   ar
    23    12    29   ar
    24    13    14   ar
    25    13    46    1
    26    14    15   ar
    27    14    47    1
    28    15    16    1
    29    15    28   ar
    30    16    17    1
    31    17    18    1
    32    17    48    1
    33    17    49    1
    34    18    19    2
    35    18    20   am
    36    20    21    1
    37    20    50    1
    38    21    22   ar
    39    21    27   ar
    40    22    23   ar
    41    22    51    1
    42    23    24   ar
    43    23    52    1
    44    24    25    1
    45    24    26   ar
    46    26    27   ar
    47    26    53    1
    48    27    54    1
    49    28    29   ar
    50    28    55    1
    51    29    56    1
    52    30    31    2
    53    31    32    1
    54    32    33   ar
    55    32    37   ar
    56    33    34   ar
    57    33    57    1
    58    34    35   ar
    59    34    58    1
    60    35    36   ar
    61    35    59    1
    62    36    37   ar
    63    36    60    1
    64    37    61    1
    65    38    39   ar
    66    38    62    1
    67    39    63    1
@<TRIPOS>MOLECULE
AD3CC00252269-I00-C00
 49 53 0 0 0
SMALL
GASTEIGER

@<TRIPOS>ATOM
      1 C           0.3710   -2.9210   -3.5000 C.3     1  UNL1       -0.0223
      2 C          -0.1300   -1.5140   -3.6430 C.ar    1  UNL1        0.0392
      3 C          -0.7470   -1.1090   -4.8240 C.ar    1  UNL1       -0.0379
      4 C          -1.1950    0.2040   -4.9300 C.ar    1  UNL1       -0.0226
      5 C          -1.0240    1.0670   -3.8570 C.ar    1  UNL1        0.1508
      6 F          -1.4220    2.3410   -3.9820 F       1  UNL1       -0.2032
      7 C          -0.4190    0.5910   -2.7000 C.ar    1  UNL1        0.1245
      8 C          -0.1760    1.3950   -1.5120 C.ar    1  UNL1        0.0954
      9 N           0.9190    1.1610   -0.7110 N.ar    1  UNL1       -0.3388
     10 C           0.9420    2.0860    0.2990 C.ar    1  UNL1        0.1254
     11 C           2.0300    2.1030    1.3260 C.3     1  UNL1        0.0672
     12 N           2.9380    0.9480    1.3080 N.pl3   1  UNL1       -0.3367
     13 C           2.6040   -0.2350    1.9760 C.ar    1  UNL1        0.0287
     14 C           1.3020   -0.5780    2.3600 C.ar    1  UNL1       -0.0408
     15 C           1.0190   -1.8150    2.9500 C.ar    1  UNL1       -0.0588
     16 C           2.0350   -2.7470    3.1440 C.ar    1  UNL1       -0.0442
     17 C           3.3330   -2.4440    2.7350 C.ar    1  UNL1        0.0535
     18 C           4.3840   -3.4030    2.9060 C.1     1  UNL1        0.0992
     19 N           5.2380   -4.1780    3.0430 N.1     1  UNL1       -0.1909
     20 C           3.6070   -1.2020    2.1460 C.ar    1  UNL1       -0.0235
     21 N          -0.1000    2.8880    0.2140 N.ar    1  UNL1       -0.2302
     22 C          -0.8160    2.4470   -0.8770 C.ar    1  UNL1        0.0999
     23 C          -2.0700    3.0680   -1.1790 C.ar    1  UNL1        0.0208
     24 C          -2.1950    4.5320   -1.1110 C.ar    1  UNL1       -0.0475
     25 C          -3.3490    5.1730   -1.3790 C.ar    1  UNL1       -0.0167
     26 C          -4.5000    4.4220   -1.7310 C.ar    1  UNL1        0.1557
     27 N          -5.7270    4.7760   -2.0390 N.ar    1  UNL1       -0.2149
     28 C          -6.3370    3.5790   -2.2600 C.ar    1  UNL1        0.1390
     29 N          -5.5740    2.4950   -2.1120 N.ar    1  UNL1       -0.1535
     30 N          -4.3750    3.0320   -1.7690 N.ar    1  UNL1       -0.2198
     31 C          -3.1830    2.3720   -1.4910 C.ar    1  UNL1        0.0407
     32 N           0.0470   -0.6820   -2.5870 N.ar    1  UNL1       -0.2475
     33 H           0.8270   -3.0740   -2.5160 H       1  UNL1        0.0292
     34 H           1.1280   -3.1320   -4.2630 H       1  UNL1        0.0292
     35 H          -0.4560   -3.6290   -3.6070 H       1  UNL1        0.0292
     36 H          -0.8720   -1.8000   -5.6520 H       1  UNL1        0.0636
     37 H          -1.6680    0.5610   -5.8390 H       1  UNL1        0.0647
     38 H           1.5920    0.4160   -0.8340 H       1  UNL1        0.1672
     39 H           1.6040    2.2470    2.3270 H       1  UNL1        0.0541
     40 H           2.6360    2.9950    1.1280 H       1  UNL1        0.0541
     41 H           3.8970    1.2280    1.5020 H       1  UNL1        0.1465
     42 H           0.4700    0.1060    2.2130 H       1  UNL1        0.0636
     43 H          -0.0000   -2.0490    3.2490 H       1  UNL1        0.0619
     44 H           1.8040   -3.7070    3.6010 H       1  UNL1        0.0630
     45 H           4.6200   -0.9880    1.8090 H       1  UNL1        0.0649
     46 H          -1.3080    5.0950   -0.8290 H       1  UNL1        0.0626
     47 H          -3.4240    6.2530   -1.3250 H       1  UNL1        0.0655
     48 H          -7.3800    3.4930   -2.5390 H       1  UNL1        0.1066
     49 H          -3.2270    1.2920   -1.5430 H       1  UNL1        0.0837
@<TRIPOS>BOND
     1     1     2    1
     2     1    33    1
     3     1    34    1
     4     1    35    1
     5     2     3   ar
     6     2    32   ar
     7     3     4   ar
     8     3    36    1
     9     4     5   ar
    10     4    37    1
    11     5     6    1
    12     5     7   ar
    13     7     8    1
    14     7    32   ar
    15     8     9   ar
    16     8    22   ar
    17     9    10   ar
    18     9    38    1
    19    10    11    1
    20    10    21   ar
    21    11    12    1
    22    11    39    1
    23    11    40    1
    24    12    13    1
    25    12    41    1
    26    13    14   ar
    27    13    20   ar
    28    14    15   ar
    29    14    42    1
    30    15    16   ar
    31    15    43    1
    32    16    17   ar
    33    16    44    1
    34    17    18    1
    35    17    20   ar
    36    18    19    3
    37    20    45    1
    38    21    22   ar
    39    22    23    1
    40    23    24   ar
    41    23    31   ar
    42    24    25   ar
    43    24    46    1
    44    25    26   ar
    45    25    47    1
    46    26    27   ar
    47    26    30   ar
    48    27    28   ar
    49    28    29   ar
    50    28    48    1
    51    29    30   ar
    52    30    31   ar
    53    31    49    1
@<TRIPOS>MOLECULE
AD3CC00252293-I00-C00
 52 56 0 0 0
SMALL
GASTEIGER

@<TRIPOS>ATOM
      1 C          -1.1900    0.2680   -4.2570 C.2     1  UNL1       -0.0981
      2 C          -2.2340   -0.5710   -4.2730 C.2     1  UNL1       -0.0616
      3 C          -2.6850   -1.3650   -3.1210 C.ar    1  UNL1       -0.0238
      4 C          -4.0500   -1.6300   -2.9790 C.ar    1  UNL1       -0.0545
      5 C          -4.5100   -2.3810   -1.9000 C.ar    1  UNL1       -0.0595
      6 C          -3.6050   -2.8880   -0.9670 C.ar    1  UNL1       -0.0408
      7 C          -2.2240   -2.6880   -1.1060 C.ar    1  UNL1        0.0280
      8 N          -1.3860   -3.1650   -0.0900 N.pl3   1  UNL1       -0.3367
      9 C           0.0680   -3.2210   -0.2800 C.3     1  UNL1        0.0672
     10 C           0.8020   -1.9390   -0.0340 C.ar    1  UNL1        0.1254
     11 N           2.0560   -1.6570   -0.3210 N.ar    1  UNL1       -0.2302
     12 C           2.2470   -0.3610    0.1020 C.ar    1  UNL1        0.0998
     13 C           3.5520    0.2180   -0.0100 C.ar    1  UNL1        0.0208
     14 C           4.3500   -0.0100   -1.2240 C.ar    1  UNL1       -0.0475
     15 C           5.5850    0.5020   -1.3860 C.ar    1  UNL1       -0.0167
     16 C           6.1560    1.2870   -0.3510 C.ar    1  UNL1        0.1557
     17 N           7.3090    1.9080   -0.2470 N.ar    1  UNL1       -0.2149
     18 C           7.2370    2.4660    0.9940 C.ar    1  UNL1        0.1390
     19 N           6.1100    2.2430    1.6720 N.ar    1  UNL1       -0.1535
     20 N           5.4010    1.4740    0.8080 N.ar    1  UNL1       -0.2198
     21 C           4.1260    0.9430    0.9730 C.ar    1  UNL1        0.0407
     22 C           1.0770    0.1900    0.5970 C.ar    1  UNL1        0.0926
     23 C           0.6610    1.4950    1.0830 C.ar    1  UNL1        0.0897
     24 C           1.2220    2.6890    0.6440 C.ar    1  UNL1       -0.0315
     25 C           0.7370    3.8860    1.1660 C.ar    1  UNL1       -0.0226
     26 C          -0.2930    3.8480    2.0930 C.ar    1  UNL1        0.1443
     27 F          -0.7700    4.9910    2.6040 F       1  UNL1       -0.2036
     28 C          -0.8220    2.6200    2.4730 C.ar    1  UNL1        0.0740
     29 C          -1.9390    2.5600    3.4680 C.3     1  UNL1       -0.0195
     30 N          -0.3610    1.4430    1.9750 N.ar    1  UNL1       -0.2475
     31 N           0.1900   -0.8630    0.5520 N.ar    1  UNL1       -0.3389
     32 C          -1.7870   -1.9020   -2.1820 C.ar    1  UNL1       -0.0337
     33 H          -0.9240    0.8280   -5.1480 H       1  UNL1        0.0535
     34 H          -0.5870    0.4350   -3.3710 H       1  UNL1        0.0535
     35 H          -2.8180   -0.6740   -5.1850 H       1  UNL1        0.0618
     36 H          -4.7680   -1.2360   -3.6950 H       1  UNL1        0.0623
     37 H          -5.5750   -2.5630   -1.7790 H       1  UNL1        0.0618
     38 H          -3.9920   -3.4480   -0.1190 H       1  UNL1        0.0636
     39 H          -1.7470   -4.0310    0.3030 H       1  UNL1        0.1465
     40 H           0.4620   -3.9520    0.4370 H       1  UNL1        0.0541
     41 H           0.3150   -3.6140   -1.2740 H       1  UNL1        0.0541
     42 H           3.9080   -0.6290   -2.0020 H       1  UNL1        0.0626
     43 H           6.1630    0.3200   -2.2850 H       1  UNL1        0.0655
     44 H           8.0360    3.0590    1.4200 H       1  UNL1        0.1066
     45 H           3.6550    1.1520    1.9250 H       1  UNL1        0.0837
     46 H           2.0090    2.7070   -0.1020 H       1  UNL1        0.0640
     47 H           1.1490    4.8390    0.8530 H       1  UNL1        0.0647
     48 H          -1.6140    2.9730    4.4280 H       1  UNL1        0.0293
     49 H          -2.8020    3.1270    3.1050 H       1  UNL1        0.0293
     50 H          -2.2580    1.5260    3.6330 H       1  UNL1        0.0293
     51 H          -0.7790   -0.8320    0.8450 H       1  UNL1        0.1672
     52 H          -0.7280   -1.7040   -2.3170 H       1  UNL1        0.0642
@<TRIPOS>BOND
     1     1     2    2
     2     1    33    1
     3     1    34    1
     4     2     3    1
     5     2    35    1
     6     3     4   ar
     7     3    32   ar
     8     4     5   ar
     9     4    36    1
    10     5     6   ar
    11     5    37    1
    12     6     7   ar
    13     6    38    1
    14     7     8    1
    15     7    32   ar
    16     8     9    1
    17     8    39    1
    18     9    10    1
    19     9    40    1
    20     9    41    1
    21    10    11   ar
    22    10    31   ar
    23    11    12   ar
    24    12    13    1
    25    12    22   ar
    26    13    14   ar
    27    13    21   ar
    28    14    15   ar
    29    14    42    1
    30    15    16   ar
    31    15    43    1
    32    16    17   ar
    33    16    20   ar
    34    17    18   ar
    35    18    19   ar
    36    18    44    1
    37    19    20   ar
    38    20    21   ar
    39    21    45    1
    40    22    23    1
    41    22    31   ar
    42    23    24   ar
    43    23    30   ar
    44    24    25   ar
    45    24    46    1
    46    25    26   ar
    47    25    47    1
    48    26    27    1
    49    26    28   ar
    50    28    29    1
    51    28    30   ar
    52    29    48    1
    53    29    49    1
    54    29    50    1
    55    31    51    1
    56    32    52    1
@<TRIPOS>MOLECULE
AD3CC00255556-I00-C00
 83 87 0 0 0
SMALL
GASTEIGER

@<TRIPOS>ATOM
      1 C          -2.6620    9.9930   -8.3140 C.3     1  UNL1        0.0371
      2 O          -3.1550    8.6690   -8.4490 O.3     1  UNL1       -0.3738
      3 C          -2.8660    7.8800   -7.2910 C.3     1  UNL1        0.1238
      4 C          -3.4170    6.4460   -7.3960 C.2     1  UNL1        0.2464
      5 O          -4.1370    6.1360   -8.3550 O.2     1  UNL1       -0.2727
      6 N          -3.0770    5.4950   -6.4200 N.am    1  UNL1       -0.2573
      7 C          -3.5680    4.1370   -6.6360 C.3     1  UNL1        0.0097
      8 C          -2.3110    5.7570   -5.2400 C.ar    1  UNL1        0.1276
      9 C          -1.8940    4.7140   -4.4060 C.ar    1  UNL1       -0.0149
     10 C          -1.1490    4.9770   -3.2440 C.ar    1  UNL1       -0.0057
     11 C          -0.6850    3.8430   -2.3650 C.3     1  UNL1        0.1148
     12 O          -1.8410    3.1320   -1.9050 O.3     1  UNL1       -0.4868
     13 C          -1.4670    2.1190   -1.0520 C.ar    1  UNL1        0.1288
     14 C          -0.9990    0.9350   -1.6070 C.ar    1  UNL1       -0.0175
     15 C          -0.6190   -0.1120   -0.7750 C.ar    1  UNL1       -0.0364
     16 C          -0.7250   -0.0040    0.6180 C.ar    1  UNL1        0.0427
     17 N          -0.3080   -1.0690    1.4640 N.am    1  UNL1       -0.2686
     18 C           0.0410   -2.3640    1.1040 C.2     1  UNL1        0.3092
     19 O          -0.0670   -2.8420   -0.0180 O.2     1  UNL1       -0.2521
     20 N           0.5520   -3.0440    2.2040 N.am    1  UNL1       -0.2538
     21 C           0.8630   -4.4000    2.1940 C.ar    1  UNL1        0.1299
     22 C           0.5780   -5.3720    1.2570 C.ar    1  UNL1        0.0021
     23 C           0.8990   -6.6070    1.8640 C.ar    1  UNL1        0.0706
     24 C           0.7310   -8.0160    1.3190 C.3     1  UNL1        0.0063
     25 C           2.1120   -8.6840    1.1610 C.3     1  UNL1       -0.0546
     26 C           0.0400   -8.0220   -0.0610 C.3     1  UNL1       -0.0546
     27 C          -0.1280   -8.8640    2.2800 C.3     1  UNL1       -0.0546
     28 N           1.3870   -6.4200    3.0960 N.ar    1  UNL1       -0.1691
     29 N           1.5020   -5.0730    3.2370 N.ar    1  UNL1       -0.2181
     30 C           2.2220   -4.5490    4.3520 C.ar    1  UNL1        0.0674
     31 C           2.7980   -3.2730    4.3230 C.ar    1  UNL1       -0.0359
     32 C           3.4970   -2.7930    5.4360 C.ar    1  UNL1       -0.0568
     33 C           3.6540   -3.5860    6.5780 C.ar    1  UNL1       -0.0503
     34 C           4.3800   -3.0550    7.7790 C.3     1  UNL1       -0.0397
     35 C           3.0960   -4.8680    6.5970 C.ar    1  UNL1       -0.0568
     36 C           2.3990   -5.3540    5.4870 C.ar    1  UNL1       -0.0359
     37 C          -1.2340    1.2050    1.2010 C.ar    1  UNL1        0.0069
     38 C          -1.3950    1.4230    2.5970 C.ar    1  UNL1       -0.0521
     39 C          -1.9040    2.6170    3.1170 C.ar    1  UNL1       -0.0611
     40 C          -2.2780    3.6380    2.2600 C.ar    1  UNL1       -0.0611
     41 C          -2.1370    3.4640    0.8870 C.ar    1  UNL1       -0.0505
     42 C          -1.6170    2.2710    0.3400 C.ar    1  UNL1        0.0256
     43 C          -0.8440    6.2970   -2.9370 C.ar    1  UNL1       -0.0371
     44 C          -1.2880    7.2770   -3.8000 C.ar    1  UNL1        0.0301
     45 N          -1.9980    7.0300   -4.9250 N.ar    1  UNL1       -0.2399
     46 H          -3.1420   10.4960   -7.4690 H       1  UNL1        0.0524
     47 H          -2.8960   10.5450   -9.2280 H       1  UNL1        0.0524
     48 H          -1.5760    9.9860   -8.1780 H       1  UNL1        0.0524
     49 H          -3.3370    8.3650   -6.4300 H       1  UNL1        0.0657
     50 H          -1.7770    7.8310   -7.1930 H       1  UNL1        0.0657
     51 H          -2.7180    3.4720   -6.8220 H       1  UNL1        0.0433
     52 H          -4.1340    3.8060   -5.7590 H       1  UNL1        0.0433
     53 H          -4.2380    4.0580   -7.4970 H       1  UNL1        0.0433
     54 H          -2.1240    3.6780   -4.6300 H       1  UNL1        0.0656
     55 H          -0.0300    3.1910   -2.9560 H       1  UNL1        0.0748
     56 H          -0.1160    4.2320   -1.5110 H       1  UNL1        0.0748
     57 H          -0.9270    0.8180   -2.6840 H       1  UNL1        0.0655
     58 H          -0.2350   -1.0070   -1.2540 H       1  UNL1        0.0637
     59 H          -0.4160   -0.9240    2.4520 H       1  UNL1        0.1564
     60 H           0.7100   -2.5270    3.0550 H       1  UNL1        0.1578
     61 H           0.1150   -5.2210    0.2920 H       1  UNL1        0.0671
     62 H           2.6380   -8.7570    2.1210 H       1  UNL1        0.0239
     63 H           2.0200   -9.7000    0.7580 H       1  UNL1        0.0239
     64 H           2.7530   -8.1100    0.4800 H       1  UNL1        0.0239
     65 H          -0.9580   -7.5710   -0.0100 H       1  UNL1        0.0239
     66 H          -0.0790   -9.0440   -0.4410 H       1  UNL1        0.0239
     67 H           0.6210   -7.4630   -0.8030 H       1  UNL1        0.0239
     68 H          -1.1140   -8.4100    2.4330 H       1  UNL1        0.0239
     69 H          -0.2810   -9.8760    1.8890 H       1  UNL1        0.0239
     70 H           0.3440   -8.9620    3.2650 H       1  UNL1        0.0239
     71 H           2.7850   -2.6550    3.4300 H       1  UNL1        0.0639
     72 H           3.9440   -1.8010    5.3970 H       1  UNL1        0.0621
     73 H           3.6950   -2.4730    8.4020 H       1  UNL1        0.0278
     74 H           4.7940   -3.8710    8.3800 H       1  UNL1        0.0278
     75 H           5.2170   -2.4180    7.4760 H       1  UNL1        0.0278
     76 H           3.2040   -5.5050    7.4730 H       1  UNL1        0.0621
     77 H           1.9840   -6.3590    5.5290 H       1  UNL1        0.0639
     78 H          -1.1360    0.6610    3.3240 H       1  UNL1        0.0624
     79 H          -2.0140    2.7400    4.1910 H       1  UNL1        0.0618
     80 H          -2.6850    4.5650    2.6540 H       1  UNL1        0.0618
     81 H          -2.4500    4.2760    0.2310 H       1  UNL1        0.0625
     82 H          -0.2770    6.5640   -2.0520 H       1  UNL1        0.0636
     83 H          -1.0810    8.3260   -3.6090 H       1  UNL1        0.0830
@<TRIPOS>BOND
     1     1     2    1
     2     1    46    1
     3     1    47    1
     4     1    48    1
     5     2     3    1
     6     3     4    1
     7     3    49    1
     8     3    50    1
     9     4     5    2
    10     4     6   am
    11     6     7    1
    12     6     8    1
    13     7    51    1
    14     7    52    1
    15     7    53    1
    16     8     9   ar
    17     8    45   ar
    18     9    10   ar
    19     9    54    1
    20    10    11    1
    21    10    43   ar
    22    11    12    1
    23    11    55    1
    24    11    56    1
    25    12    13    1
    26    13    14   ar
    27    13    42   ar
    28    14    15   ar
    29    14    57    1
    30    15    16   ar
    31    15    58    1
    32    16    17    1
    33    16    37   ar
    34    17    18   am
    35    17    59    1
    36    18    19    2
    37    18    20   am
    38    20    21    1
    39    20    60    1
    40    21    22   ar
    41    21    29   ar
    42    22    23   ar
    43    22    61    1
    44    23    24    1
    45    23    28   ar
    46    24    25    1
    47    24    26    1
    48    24    27    1
    49    25    62    1
    50    25    63    1
    51    25    64    1
    52    26    65    1
    53    26    66    1
    54    26    67    1
    55    27    68    1
    56    27    69    1
    57    27    70    1
    58    28    29   ar
    59    29    30    1
    60    30    31   ar
    61    30    36   ar
    62    31    32   ar
    63    31    71    1
    64    32    33   ar
    65    32    72    1
    66    33    34    1
    67    33    35   ar
    68    34    73    1
    69    34    74    1
    70    34    75    1
    71    35    36   ar
    72    35    76    1
    73    36    77    1
    74    37    38   ar
    75    37    42   ar
    76    38    39   ar
    77    38    78    1
    78    39    40   ar
    79    39    79    1
    80    40    41   ar
    81    40    80    1
    82    41    42   ar
    83    41    81    1
    84    43    44   ar
    85    43    82    1
    86    44    45   ar
    87    44    83    1
@<TRIPOS>MOLECULE
AD3CC00256666-I00-C00
 25 27 0 0 0
SMALL
GASTEIGER

@<TRIPOS>ATOM
      1 N          -2.5870    2.5590    1.3070 N.am    1  UNL1       -0.3228
      2 C          -2.3910    1.9770    0.0840 C.2     1  UNL1        0.2774
      3 O          -3.2220    2.1260   -0.8070 O.2     1  UNL1       -0.2671
      4 C          -1.1600    1.2160   -0.0150 C.ar    1  UNL1        0.2014
      5 N          -0.3120    1.1050    1.0000 N.ar    1  UNL1       -0.2219
      6 C           0.7250    0.3230    0.5470 C.ar    1  UNL1        0.1053
      7 C           1.9230   -0.0260    1.4800 C.ar    1  UNL1        0.0596
      8 C           2.0270    0.4100    2.7850 C.ar    1  UNL1       -0.0257
      9 C           3.2310   -0.0730    3.3720 C.ar    1  UNL1        0.0373
     10 N           4.0150   -0.8260    2.6050 N.ar    1  UNL1       -0.2181
     11 S           3.2920   -0.9690    1.1160 S.2     1  UNL1        0.0132
     12 C           0.5160   -0.0540   -0.7640 C.ar    1  UNL1        0.0746
     13 C           1.1900   -0.8280   -1.7560 C.ar    1  UNL1       -0.0356
     14 C           0.6420   -0.9720   -2.9770 C.ar    1  UNL1       -0.0584
     15 C          -0.6260   -0.3580   -3.3210 C.ar    1  UNL1       -0.0451
     16 C          -1.2660    0.3720   -2.3940 C.ar    1  UNL1        0.0119
     17 N          -0.7040    0.5260   -1.1230 N.ar    1  UNL1       -0.2951
     18 H          -1.8950    2.4300    2.0360 H       1  UNL1        0.1453
     19 H          -3.4160    3.1080    1.4700 H       1  UNL1        0.1453
     20 H           1.2930    1.0310    3.2810 H       1  UNL1        0.0645
     21 H           3.5640    0.1170    4.3840 H       1  UNL1        0.0837
     22 H           2.1390   -1.3030   -1.5360 H       1  UNL1        0.0639
     23 H           1.1430   -1.5580   -3.7430 H       1  UNL1        0.0619
     24 H          -1.0300   -0.5010   -4.3180 H       1  UNL1        0.0632
     25 H          -2.2150    0.8530   -2.5950 H       1  UNL1        0.0813
@<TRIPOS>BOND
     1     1     2   am
     2     1    18    1
     3     1    19    1
     4     2     3    2
     5     2     4    1
     6     4     5   ar
     7     4    17   ar
     8     5     6   ar
     9     6     7    1
    10     6    12   ar
    11     7     8   ar
    12     7    11   ar
    13     8     9   ar
    14     8    20    1
    15     9    10   ar
    16     9    21    1
    17    10    11   ar
    18    12    13   ar
    19    12    17   ar
    20    13    14   ar
    21    13    22    1
    22    14    15   ar
    23    14    23    1
    24    15    16   ar
    25    15    24    1
    26    16    17   ar
    27    16    25    1
@<TRIPOS>MOLECULE
AD3CC00268405-I00-C00
 100 107 0 0 0
SMALL
GASTEIGER

@<TRIPOS>ATOM
      1 C           6.2380    2.9780    1.0930 C.3     1  UNL1       -0.0223
      2 C           5.6460    1.8100    1.7790 C.ar    1  UNL1        0.0407
      3 N           4.8240    0.9220    1.1390 N.ar    1  UNL1       -0.2807
      4 N           4.3670   -0.0820    1.9070 N.ar    1  UNL1       -0.1736
      5 C           4.9030    0.1410    3.1210 C.ar    1  UNL1        0.0945
      6 C           4.7720   -0.5810    4.3240 C.ar    1  UNL1       -0.0127
      7 C           5.4920   -0.0530    5.4230 C.ar    1  UNL1        0.0357
      8 N           5.4730   -0.6450    6.7020 N.pl3   1  UNL1       -0.2835
      9 C           4.8130   -1.7380    7.2540 C.ar    1  UNL1        0.2226
     10 N           5.1220   -1.9920    8.5390 N.ar    1  UNL1       -0.2225
     11 C           4.5180   -3.0410    9.1270 C.ar    1  UNL1        0.0362
     12 C           3.6100   -3.8460    8.4910 C.ar    1  UNL1        0.0186
     13 C           3.3480   -3.4950    7.1910 C.ar    1  UNL1        0.2249
     14 O           2.4370   -4.3000    6.5090 O.3     1  UNL1       -0.4373
     15 C           1.8540   -3.7230    5.3990 C.ar    1  UNL1        0.1381
     16 C           0.7650   -2.8840    5.6090 C.ar    1  UNL1       -0.0169
     17 C           0.1310   -2.2910    4.5240 C.ar    1  UNL1       -0.0363
     18 C           0.5660   -2.5350    3.2150 C.ar    1  UNL1        0.0427
     19 N          -0.0830   -1.9220    2.1080 N.am    1  UNL1       -0.2686
     20 C          -1.2900   -1.2360    2.0930 C.2     1  UNL1        0.3092
     21 O          -2.0340   -1.0860    3.0520 O.2     1  UNL1       -0.2521
     22 N          -1.5600   -0.7760    0.8080 N.am    1  UNL1       -0.2538
     23 C          -2.7020   -0.0580    0.4710 C.ar    1  UNL1        0.1299
     24 C          -3.7420    0.3960    1.2540 C.ar    1  UNL1        0.0021
     25 C          -4.5080    1.2530    0.4310 C.ar    1  UNL1        0.0706
     26 C          -5.7170    2.0920    0.8200 C.3     1  UNL1        0.0063
     27 C          -5.2420    3.4340    1.4090 C.3     1  UNL1       -0.0546
     28 C          -6.5820    1.3690    1.8730 C.3     1  UNL1       -0.0546
     29 C          -6.6200    2.3820   -0.3980 C.3     1  UNL1       -0.0546
     30 N          -3.9870    1.3230   -0.8000 N.ar    1  UNL1       -0.1691
     31 N          -2.9900    0.4010   -0.8160 N.ar    1  UNL1       -0.2181
     32 C          -2.4110    0.0260   -2.0650 C.ar    1  UNL1        0.0677
     33 C          -2.5300    0.8910   -3.1610 C.ar    1  UNL1       -0.0327
     34 C          -1.9720    0.5540   -4.4010 C.ar    1  UNL1       -0.0179
     35 C          -1.3060   -0.6590   -4.5630 C.ar    1  UNL1        0.1207
     36 O          -0.7290   -1.1170   -5.7150 O.3     1  UNL1       -0.4907
     37 C          -0.5810   -0.2060   -6.8100 C.3     1  UNL1        0.1022
     38 C          -1.8020   -0.2620   -7.7460 C.3     1  UNL1        0.0333
     39 N          -1.7980    0.7850   -8.7860 N.3     1  UNL1       -0.2948
     40 C          -3.1000    0.8000   -9.4960 C.3     1  UNL1        0.0225
     41 C          -3.1120    1.8410  -10.6260 C.3     1  UNL1        0.0604
     42 O          -2.0630    1.5880  -11.5700 O.3     1  UNL1       -0.3772
     43 C          -0.7910    1.6200  -10.9080 C.3     1  UNL1        0.0604
     44 C          -0.7220    0.5770   -9.7800 C.3     1  UNL1        0.0225
     45 C          -1.2200   -1.5380   -3.4820 C.ar    1  UNL1       -0.0179
     46 C          -1.7700   -1.2050   -2.2390 C.ar    1  UNL1       -0.0327
     47 C           1.6840   -3.4090    2.9840 C.ar    1  UNL1        0.0069
     48 C           2.2120   -3.7220    1.7010 C.ar    1  UNL1       -0.0521
     49 C           3.2940   -4.5880    1.5250 C.ar    1  UNL1       -0.0611
     50 C           3.8890   -5.1810    2.6230 C.ar    1  UNL1       -0.0611
     51 C           3.4040   -4.8990    3.8960 C.ar    1  UNL1       -0.0505
     52 C           2.3180   -4.0200    4.1010 C.ar    1  UNL1        0.0262
     53 N           3.9380   -2.4670    6.5560 N.ar    1  UNL1       -0.1789
     54 C           6.2880    1.1450    5.2840 C.ar    1  UNL1       -0.0397
     55 C           6.4400    1.8980    4.0990 C.ar    1  UNL1       -0.0491
     56 C           5.7180    1.3290    3.0610 C.ar    1  UNL1        0.0225
     57 H           5.6600    3.8810    1.3190 H       1  UNL1        0.0292
     58 H           6.2470    2.8390    0.0060 H       1  UNL1        0.0292
     59 H           7.2710    3.1440    1.4170 H       1  UNL1        0.0292
     60 H           4.5330    0.9420    0.1680 H       1  UNL1        0.1885
     61 H           4.1620   -1.4700    4.3660 H       1  UNL1        0.0658
     62 H           6.0580   -0.2260    7.4100 H       1  UNL1        0.1550
     63 H           4.7970   -3.2170   10.1630 H       1  UNL1        0.0832
     64 H           3.1320   -4.6830    8.9760 H       1  UNL1        0.0686
     65 H           0.4140   -2.6760    6.6160 H       1  UNL1        0.0655
     66 H          -0.6940   -1.6180    4.7390 H       1  UNL1        0.0637
     67 H           0.3360   -2.0810    1.2120 H       1  UNL1        0.1564
     68 H          -0.8160   -0.8160    0.1290 H       1  UNL1        0.1578
     69 H          -3.8870    0.2080    2.3090 H       1  UNL1        0.0671
     70 H          -6.0900    4.0640    1.7020 H       1  UNL1        0.0239
     71 H          -4.6420    3.9970    0.6840 H       1  UNL1        0.0239
     72 H          -4.6180    3.2830    2.2970 H       1  UNL1        0.0239
     73 H          -7.4750    1.9550    2.1230 H       1  UNL1        0.0239
     74 H          -6.0340    1.2040    2.8070 H       1  UNL1        0.0239
     75 H          -6.9170    0.3900    1.5080 H       1  UNL1        0.0239
     76 H          -7.5050    2.9610   -0.1080 H       1  UNL1        0.0239
     77 H          -6.0910    2.9590   -1.1650 H       1  UNL1        0.0239
     78 H          -6.9660    1.4510   -0.8650 H       1  UNL1        0.0239
     79 H          -3.0520    1.8420   -3.0660 H       1  UNL1        0.0640
     80 H          -2.0970    1.2570   -5.2180 H       1  UNL1        0.0655
     81 H          -0.3560    0.8110   -6.4690 H       1  UNL1        0.0709
     82 H           0.3090   -0.5390   -7.3570 H       1  UNL1        0.0709
     83 H          -2.7050   -0.1530   -7.1330 H       1  UNL1        0.0460
     84 H          -1.8720   -1.2650   -8.1900 H       1  UNL1        0.0460
     85 H          -3.3010   -0.1910   -9.9250 H       1  UNL1        0.0449
     86 H          -3.9090    1.0370   -8.7950 H       1  UNL1        0.0449
     87 H          -3.0040    2.8580  -10.2320 H       1  UNL1        0.0572
     88 H          -4.0610    1.7930  -11.1690 H       1  UNL1        0.0572
     89 H          -0.6090    2.6320  -10.5250 H       1  UNL1        0.0572
     90 H          -0.0230    1.4040  -11.6570 H       1  UNL1        0.0572
     91 H           0.2600    0.6600   -9.3010 H       1  UNL1        0.0449
     92 H          -0.8110   -0.4270  -10.2170 H       1  UNL1        0.0449
     93 H          -0.7350   -2.5040   -3.6140 H       1  UNL1        0.0655
     94 H          -1.7430   -1.9560   -1.4570 H       1  UNL1        0.0640
     95 H           1.7990   -3.2910    0.7970 H       1  UNL1        0.0624
     96 H           3.6730   -4.7910    0.5280 H       1  UNL1        0.0618
     97 H           4.7310   -5.8550    2.4980 H       1  UNL1        0.0618
     98 H           3.8940   -5.3690    4.7460 H       1  UNL1        0.0625
     99 H           6.8200    1.5130    6.1640 H       1  UNL1        0.0636
    100 H           7.0450    2.7910    4.0380 H       1  UNL1        0.0625
@<TRIPOS>BOND
     1     1     2    1
     2     1    57    1
     3     1    58    1
     4     1    59    1
     5     2     3   ar
     6     2    56   ar
     7     3     4   ar
     8     3    60    1
     9     4     5   ar
    10     5     6   ar
    11     5    56   ar
    12     6     7   ar
    13     6    61    1
    14     7     8    1
    15     7    54   ar
    16     8     9    1
    17     8    62    1
    18     9    10   ar
    19     9    53   ar
    20    10    11   ar
    21    11    12   ar
    22    11    63    1
    23    12    13   ar
    24    12    64    1
    25    13    14    1
    26    13    53   ar
    27    14    15    1
    28    15    16   ar
    29    15    52   ar
    30    16    17   ar
    31    16    65    1
    32    17    18   ar
    33    17    66    1
    34    18    19    1
    35    18    47   ar
    36    19    20   am
    37    19    67    1
    38    20    21    2
    39    20    22   am
    40    22    23    1
    41    22    68    1
    42    23    24   ar
    43    23    31   ar
    44    24    25   ar
    45    24    69    1
    46    25    26    1
    47    25    30   ar
    48    26    27    1
    49    26    28    1
    50    26    29    1
    51    27    70    1
    52    27    71    1
    53    27    72    1
    54    28    73    1
    55    28    74    1
    56    28    75    1
    57    29    76    1
    58    29    77    1
    59    29    78    1
    60    30    31   ar
    61    31    32    1
    62    32    33   ar
    63    32    46   ar
    64    33    34   ar
    65    33    79    1
    66    34    35   ar
    67    34    80    1
    68    35    36    1
    69    35    45   ar
    70    36    37    1
    71    37    38    1
    72    37    81    1
    73    37    82    1
    74    38    39    1
    75    38    83    1
    76    38    84    1
    77    39    40    1
    78    39    44    1
    79    40    41    1
    80    40    85    1
    81    40    86    1
    82    41    42    1
    83    41    87    1
    84    41    88    1
    85    42    43    1
    86    43    44    1
    87    43    89    1
    88    43    90    1
    89    44    91    1
    90    44    92    1
    91    45    46   ar
    92    45    93    1
    93    46    94    1
    94    47    48   ar
    95    47    52   ar
    96    48    49   ar
    97    48    95    1
    98    49    50   ar
    99    49    96    1
   100    50    51   ar
   101    50    97    1
   102    51    52   ar
   103    51    98    1
   104    54    55   ar
   105    54    99    1
   106    55    56   ar
   107    55   100    1
@<TRIPOS>MOLECULE
AD3CC00268620-I00-C00
 99 106 0 0 0
SMALL
GASTEIGER

@<TRIPOS>ATOM
      1 C          -0.8920   -4.8890   -0.4720 C.3     1  UNL1       -0.0376
      2 C          -1.7140   -3.6610   -0.2500 C.ar    1  UNL1       -0.0210
      3 C          -2.7420   -3.6200    0.7390 C.ar    1  UNL1       -0.0355
      4 C          -3.5780   -2.4760    1.0350 C.ar    1  UNL1        0.0346
      5 N          -4.5060   -2.6170    2.0890 N.pl3   1  UNL1       -0.2835
      6 C          -5.2470   -1.6780    2.8020 C.ar    1  UNL1        0.2226
      7 N          -6.2930   -2.1450    3.5010 N.ar    1  UNL1       -0.2225
      8 C          -7.0090   -1.2510    4.2120 C.ar    1  UNL1        0.0362
      9 C          -6.7060    0.0850    4.2810 C.ar    1  UNL1        0.0186
     10 C          -5.6030    0.4590    3.5580 C.ar    1  UNL1        0.2249
     11 O          -5.2320    1.8040    3.6200 O.3     1  UNL1       -0.4373
     12 C          -4.0150    2.0930    3.0340 C.ar    1  UNL1        0.1381
     13 C          -4.0240    2.4950    1.7000 C.ar    1  UNL1       -0.0169
     14 C          -2.8200    2.6750    1.0270 C.ar    1  UNL1       -0.0363
     15 C          -1.5970    2.4830    1.6800 C.ar    1  UNL1        0.0427
     16 N          -0.3740    2.4880    0.9600 N.am    1  UNL1       -0.2686
     17 C          -0.1650    2.6670   -0.3980 C.2     1  UNL1        0.3092
     18 O          -0.9710    3.1320   -1.1980 O.2     1  UNL1       -0.2521
     19 N           1.0880    2.1620   -0.7400 N.am    1  UNL1       -0.2538
     20 C           1.6270    2.2210   -2.0180 C.ar    1  UNL1        0.1300
     21 C           1.2890    3.0240   -3.0830 C.ar    1  UNL1        0.0021
     22 C           2.3380    2.8770   -4.0110 C.ar    1  UNL1        0.0706
     23 C           2.5590    3.6040   -5.3290 C.3     1  UNL1        0.0063
     24 C           3.6530    4.6750   -5.1580 C.3     1  UNL1       -0.0546
     25 C           1.2760    4.3030   -5.8220 C.3     1  UNL1       -0.0546
     26 C           3.0050    2.6170   -6.4290 C.3     1  UNL1       -0.0546
     27 N           3.2560    2.0140   -3.5650 N.ar    1  UNL1       -0.1690
     28 N           2.7300    1.4470   -2.4370 N.ar    1  UNL1       -0.2167
     29 C           3.2510    0.2680   -1.8290 C.ar    1  UNL1        0.0837
     30 C           4.5980   -0.1780   -2.1740 C.ar    1  UNL1       -0.0297
     31 C           5.1510   -1.2680   -1.6230 C.ar    1  UNL1        0.0050
     32 C           4.3970   -2.0730   -0.6310 C.ar    1  UNL1        0.2514
     33 O           4.9420   -3.0200   -0.0770 O.2     1  UNL1       -0.2677
     34 N           3.0900   -1.6560   -0.3970 N.ar    1  UNL1       -0.3120
     35 C           2.2650   -2.4250    0.5440 C.3     1  UNL1        0.0389
     36 C           2.5060   -1.9840    2.0010 C.3     1  UNL1        0.0171
     37 N           1.5220   -2.5330    2.9530 N.3     1  UNL1       -0.2963
     38 C           2.0410   -2.4430    4.3380 C.3     1  UNL1        0.0225
     39 C           1.0110   -2.9600    5.3530 C.3     1  UNL1        0.0604
     40 O          -0.2070   -2.2070    5.2750 O.3     1  UNL1       -0.3772
     41 C          -0.7600   -2.3010    3.9540 C.3     1  UNL1        0.0604
     42 C           0.2300   -1.8010    2.8880 C.3     1  UNL1        0.0225
     43 C           2.5520   -0.5210   -0.9870 C.ar    1  UNL1        0.0334
     44 C          -1.5760    2.1820    3.0840 C.ar    1  UNL1        0.0069
     45 C          -0.3930    2.0530    3.8620 C.ar    1  UNL1       -0.0521
     46 C          -0.4180    1.7230    5.2180 C.ar    1  UNL1       -0.0611
     47 C          -1.6290    1.5160    5.8530 C.ar    1  UNL1       -0.0611
     48 C          -2.8120    1.6440    5.1320 C.ar    1  UNL1       -0.0505
     49 C          -2.8110    1.9750    3.7590 C.ar    1  UNL1        0.0262
     50 N          -4.8820   -0.3930    2.8110 N.ar    1  UNL1       -0.1789
     51 C          -3.4090   -1.2500    0.3500 C.ar    1  UNL1       -0.0298
     52 C          -2.4180   -1.3170   -0.6230 C.ar    1  UNL1        0.0215
     53 C          -2.0780   -0.2960   -1.4650 C.ar    1  UNL1        0.0301
     54 N          -1.0960   -0.8220   -2.2530 N.ar    1  UNL1       -0.2836
     55 N          -0.7440   -2.0870   -1.9410 N.ar    1  UNL1       -0.1736
     56 C          -1.5830   -2.4440   -0.9500 C.ar    1  UNL1        0.0955
     57 H          -0.1080   -4.7160   -1.2160 H       1  UNL1        0.0278
     58 H          -0.4080   -5.1930    0.4600 H       1  UNL1        0.0278
     59 H          -1.5280   -5.7030   -0.8280 H       1  UNL1        0.0278
     60 H          -2.9000   -4.5260    1.3340 H       1  UNL1        0.0639
     61 H          -4.8790   -3.5430    2.2510 H       1  UNL1        0.1550
     62 H          -7.8560   -1.6650    4.7510 H       1  UNL1        0.0832
     63 H          -7.2830    0.7860    4.8660 H       1  UNL1        0.0686
     64 H          -4.9670    2.6090    1.1710 H       1  UNL1        0.0655
     65 H          -2.8740    2.9330   -0.0260 H       1  UNL1        0.0637
     66 H           0.4560    2.3250    1.5010 H       1  UNL1        0.1564
     67 H           1.5860    1.6400   -0.0350 H       1  UNL1        0.1578
     68 H           0.4590    3.7160   -3.1340 H       1  UNL1        0.0671
     69 H           4.6070    4.2310   -4.8510 H       1  UNL1        0.0239
     70 H           3.8280    5.2160   -6.0960 H       1  UNL1        0.0239
     71 H           3.3730    5.4100   -4.3950 H       1  UNL1        0.0239
     72 H           0.9410    5.0740   -5.1190 H       1  UNL1        0.0239
     73 H           0.4520    3.5900   -5.9470 H       1  UNL1        0.0239
     74 H           1.4410    4.7950   -6.7880 H       1  UNL1        0.0239
     75 H           3.1380    3.1270   -7.3920 H       1  UNL1        0.0239
     76 H           2.2650    1.8210   -6.5700 H       1  UNL1        0.0239
     77 H           3.9600    2.1380   -6.1820 H       1  UNL1        0.0239
     78 H           5.1580    0.4020   -2.9030 H       1  UNL1        0.0641
     79 H           6.1470   -1.6070   -1.8740 H       1  UNL1        0.0672
     80 H           2.5090   -3.4890    0.4380 H       1  UNL1        0.0505
     81 H           1.2160   -2.3130    0.2580 H       1  UNL1        0.0505
     82 H           3.5110   -2.3230    2.2770 H       1  UNL1        0.0444
     83 H           2.5320   -0.8900    2.0710 H       1  UNL1        0.0444
     84 H           2.2870   -1.3980    4.5770 H       1  UNL1        0.0449
     85 H           2.9550   -3.0450    4.4390 H       1  UNL1        0.0449
     86 H           1.4000   -2.8440    6.3680 H       1  UNL1        0.0572
     87 H           0.7970   -4.0250    5.1980 H       1  UNL1        0.0572
     88 H          -1.6630   -1.6840    3.9290 H       1  UNL1        0.0572
     89 H          -1.0530   -3.3400    3.7620 H       1  UNL1        0.0572
     90 H           0.4040   -0.7290    3.0460 H       1  UNL1        0.0449
     91 H          -0.2290   -1.9230    1.9050 H       1  UNL1        0.0449
     92 H           1.5110   -0.3350   -0.7450 H       1  UNL1        0.0831
     93 H           0.5890    2.2140    3.4310 H       1  UNL1        0.0624
     94 H           0.5100    1.6250    5.7720 H       1  UNL1        0.0618
     95 H          -1.6540    1.2570    6.9050 H       1  UNL1        0.0618
     96 H          -3.7500    1.4740    5.6560 H       1  UNL1        0.0625
     97 H          -4.0000   -0.3630    0.5390 H       1  UNL1        0.0643
     98 H          -2.4360    0.7180   -1.5970 H       1  UNL1        0.0830
     99 H          -0.6120   -0.3630   -3.0160 H       1  UNL1        0.1882
@<TRIPOS>BOND
     1     1     2    1
     2     1    57    1
     3     1    58    1
     4     1    59    1
     5     2     3   ar
     6     2    56   ar
     7     3     4   ar
     8     3    60    1
     9     4     5    1
    10     4    51   ar
    11     5     6    1
    12     5    61    1
    13     6     7   ar
    14     6    50   ar
    15     7     8   ar
    16     8     9   ar
    17     8    62    1
    18     9    10   ar
    19     9    63    1
    20    10    11    1
    21    10    50   ar
    22    11    12    1
    23    12    13   ar
    24    12    49   ar
    25    13    14   ar
    26    13    64    1
    27    14    15   ar
    28    14    65    1
    29    15    16    1
    30    15    44   ar
    31    16    17   am
    32    16    66    1
    33    17    18    2
    34    17    19   am
    35    19    20    1
    36    19    67    1
    37    20    21   ar
    38    20    28   ar
    39    21    22   ar
    40    21    68    1
    41    22    23    1
    42    22    27   ar
    43    23    24    1
    44    23    25    1
    45    23    26    1
    46    24    69    1
    47    24    70    1
    48    24    71    1
    49    25    72    1
    50    25    73    1
    51    25    74    1
    52    26    75    1
    53    26    76    1
    54    26    77    1
    55    27    28   ar
    56    28    29    1
    57    29    30   ar
    58    29    43   ar
    59    30    31   ar
    60    30    78    1
    61    31    32   ar
    62    31    79    1
    63    32    33    2
    64    32    34   ar
    65    34    35    1
    66    34    43   ar
    67    35    36    1
    68    35    80    1
    69    35    81    1
    70    36    37    1
    71    36    82    1
    72    36    83    1
    73    37    38    1
    74    37    42    1
    75    38    39    1
    76    38    84    1
    77    38    85    1
    78    39    40    1
    79    39    86    1
    80    39    87    1
    81    40    41    1
    82    41    42    1
    83    41    88    1
    84    41    89    1
    85    42    90    1
    86    42    91    1
    87    43    92    1
    88    44    45   ar
    89    44    49   ar
    90    45    46   ar
    91    45    93    1
    92    46    47   ar
    93    46    94    1
    94    47    48   ar
    95    47    95    1
    96    48    49   ar
    97    48    96    1
    98    51    52   ar
    99    51    97    1
   100    52    53   ar
   101    52    56   ar
   102    53    54   ar
   103    53    98    1
   104    54    55   ar
   105    54    99    1
   106    55    56   ar
@<TRIPOS>MOLECULE
AD3CC00279003-I00-C00
 53 57 0 0 0
SMALL
GASTEIGER

@<TRIPOS>ATOM
      1 F           4.5860    2.0700   -3.2400 F       1  UNL1       -0.2055
      2 C           3.3820    2.4310   -2.7780 C.ar    1  UNL1        0.1236
      3 C           3.2250    2.7190   -1.4260 C.ar    1  UNL1       -0.0230
      4 C           1.9700    3.0950   -0.9440 C.ar    1  UNL1       -0.0165
      5 C           0.8820    3.1540   -1.8210 C.ar    1  UNL1        0.1321
      6 O          -0.3600    3.5650   -1.4080 O.3     1  UNL1       -0.4236
      7 C          -1.0160    2.7820   -0.4650 C.ar    1  UNL1        0.3239
      8 N          -2.1740    3.2950   -0.0210 N.ar    1  UNL1       -0.2030
      9 C          -2.8510    2.5530    0.8710 C.ar    1  UNL1        0.0350
     10 C          -2.4170    1.3320    1.3240 C.ar    1  UNL1       -0.0158
     11 C          -1.2180    0.8960    0.8040 C.ar    1  UNL1        0.0962
     12 C          -0.6120   -0.3640    1.2170 C.ar    1  UNL1        0.0953
     13 C          -0.3500   -0.8840    2.4810 C.ar    1  UNL1        0.0982
     14 C          -0.5880   -0.2400    3.7620 C.ar    1  UNL1        0.0027
     15 C          -0.2210    1.0940    3.9930 C.ar    1  UNL1       -0.0498
     16 C          -0.4630    1.6860    5.2350 C.ar    1  UNL1       -0.0258
     17 C          -1.0580    0.9420    6.2460 C.ar    1  UNL1        0.1234
     18 F          -1.2900    1.5120    7.4350 F       1  UNL1       -0.2055
     19 C          -1.4110   -0.3870    6.0430 C.ar    1  UNL1       -0.0258
     20 C          -1.1700   -0.9800    4.8020 C.ar    1  UNL1       -0.0498
     21 N           0.1780   -2.1490    2.4020 N.ar    1  UNL1       -0.2351
     22 C           0.3080   -2.3880    1.1200 C.ar    1  UNL1        0.0974
     23 N          -0.1670   -1.3550    0.3560 N.ar    1  UNL1       -0.3252
     24 C          -0.1920   -1.3450   -1.1040 C.3     1  UNL1        0.0383
     25 C          -0.8580   -2.5940   -1.7020 C.3     1  UNL1       -0.0194
     26 C          -0.8250   -2.5350   -3.2270 C.3     1  UNL1       -0.0022
     27 N           0.5440   -2.3780   -3.7130 N.3     1  UNL1       -0.3158
     28 C           1.1630   -1.1510   -3.2110 C.3     1  UNL1       -0.0022
     29 C           1.2110   -1.1460   -1.6870 C.3     1  UNL1       -0.0194
     30 N          -0.5050    1.5940   -0.0980 N.ar    1  UNL1       -0.1930
     31 C           1.0540    2.8890   -3.1820 C.ar    1  UNL1       -0.0165
     32 C           2.3100    2.5180   -3.6620 C.ar    1  UNL1       -0.0230
     33 H           4.0780    2.6540   -0.7590 H       1  UNL1        0.0647
     34 H           1.8450    3.3320    0.1080 H       1  UNL1        0.0655
     35 H          -3.7840    2.9840    1.2240 H       1  UNL1        0.0832
     36 H          -2.9830    0.7600    2.0470 H       1  UNL1        0.0655
     37 H           0.2720    1.6760    3.2170 H       1  UNL1        0.0625
     38 H          -0.1810    2.7180    5.4210 H       1  UNL1        0.0646
     39 H          -1.8620   -0.9550    6.8500 H       1  UNL1        0.0646
     40 H          -1.4320   -2.0250    4.6450 H       1  UNL1        0.0625
     41 H           0.7340   -3.2880    0.6950 H       1  UNL1        0.1029
     42 H          -0.8140   -0.4960   -1.4090 H       1  UNL1        0.0529
     43 H          -1.8960   -2.6690   -1.3560 H       1  UNL1        0.0297
     44 H          -0.3480   -3.5070   -1.3690 H       1  UNL1        0.0297
     45 H          -1.4560   -1.7160   -3.5930 H       1  UNL1        0.0425
     46 H          -1.2410   -3.4650   -3.6300 H       1  UNL1        0.0425
     47 H           0.5420   -2.3600   -4.7340 H       1  UNL1        0.1219
     48 H           2.1830   -1.0810   -3.6030 H       1  UNL1        0.0425
     49 H           0.6150   -0.2760   -3.5800 H       1  UNL1        0.0425
     50 H           1.6380   -0.2000   -1.3350 H       1  UNL1        0.0297
     51 H           1.8850   -1.9390   -1.3400 H       1  UNL1        0.0297
     52 H           0.2130    2.9720   -3.8650 H       1  UNL1        0.0655
     53 H           2.4630    2.3030   -4.7140 H       1  UNL1        0.0647
@<TRIPOS>BOND
     1     1     2    1
     2     2     3   ar
     3     2    32   ar
     4     3     4   ar
     5     3    33    1
     6     4     5   ar
     7     4    34    1
     8     5     6    1
     9     5    31   ar
    10     6     7    1
    11     7     8   ar
    12     7    30   ar
    13     8     9   ar
    14     9    10   ar
    15     9    35    1
    16    10    11   ar
    17    10    36    1
    18    11    12    1
    19    11    30   ar
    20    12    13   ar
    21    12    23   ar
    22    13    14    1
    23    13    21   ar
    24    14    15   ar
    25    14    20   ar
    26    15    16   ar
    27    15    37    1
    28    16    17   ar
    29    16    38    1
    30    17    18    1
    31    17    19   ar
    32    19    20   ar
    33    19    39    1
    34    20    40    1
    35    21    22   ar
    36    22    23   ar
    37    22    41    1
    38    23    24    1
    39    24    25    1
    40    24    29    1
    41    24    42    1
    42    25    26    1
    43    25    43    1
    44    25    44    1
    45    26    27    1
    46    26    45    1
    47    26    46    1
    48    27    28    1
    49    27    47    1
    50    28    29    1
    51    28    48    1
    52    28    49    1
    53    29    50    1
    54    29    51    1
    55    31    32   ar
    56    31    52    1
    57    32    53    1
@<TRIPOS>MOLECULE
AD3CC00284323-I00-C00
 45 48 0 0 0
SMALL
GASTEIGER

@<TRIPOS>ATOM
      1 C          -2.5190    1.6150   -0.8920 C.3     1  UNL1       -0.0390
      2 C          -2.5280    1.5310    0.6140 C.ar    1  UNL1       -0.0398
      3 C          -3.7650    1.6880    1.2700 C.ar    1  UNL1       -0.0582
      4 C          -3.8550    1.6350    2.6590 C.ar    1  UNL1       -0.0615
      5 C          -2.7120    1.4210    3.4160 C.ar    1  UNL1       -0.0611
      6 C          -1.4810    1.2510    2.7790 C.ar    1  UNL1       -0.0508
      7 C          -1.3530    1.2890    1.3710 C.ar    1  UNL1        0.0221
      8 C          -0.0160    1.0750    0.7710 C.ar    1  UNL1        0.1644
      9 N           0.0420    0.3710   -0.3800 N.ar    1  UNL1       -0.2095
     10 C           1.2460    0.1100   -0.9910 C.ar    1  UNL1        0.1649
     11 N           1.2470   -0.6440   -2.2060 N.am    1  UNL1       -0.2009
     12 C           2.2160   -0.6490   -3.1970 C.2     1  UNL1        0.3097
     13 N           3.1480    0.3360   -3.2090 N.am    1  UNL1       -0.3126
     14 O           2.2660   -1.4650   -4.1210 O.2     1  UNL1       -0.2521
     15 C           0.0760   -1.4480   -2.4140 C.ar    1  UNL1        0.1144
     16 C          -0.6460   -1.3770   -3.6130 C.ar    1  UNL1        0.1479
     17 F          -0.3040   -0.4940   -4.5650 F       1  UNL1       -0.2034
     18 C          -1.7810   -2.1600   -3.8280 C.ar    1  UNL1       -0.0244
     19 C          -2.2190   -3.0400   -2.8410 C.ar    1  UNL1       -0.0562
     20 C          -1.5150   -3.1320   -1.6420 C.ar    1  UNL1       -0.0244
     21 C          -0.3810   -2.3450   -1.4370 C.ar    1  UNL1        0.1479
     22 F           0.2990   -2.5100   -0.2900 F       1  UNL1       -0.2034
     23 C           2.3970    0.6000   -0.3460 C.ar    1  UNL1        0.1484
     24 N           3.7550    0.5250   -0.6260 N.ar    1  UNL1       -0.2306
     25 C           4.3510    1.1610    0.3610 C.ar    1  UNL1        0.0981
     26 N           3.4490    1.6470    1.2630 N.ar    1  UNL1       -0.3180
     27 C           3.7480    2.3900    2.4590 C.3     1  UNL1        0.0146
     28 C           2.1990    1.2980    0.8360 C.ar    1  UNL1        0.1658
     29 N           1.0390    1.5710    1.4460 N.ar    1  UNL1       -0.2078
     30 H          -2.4510    0.6140   -1.3280 H       1  UNL1        0.0278
     31 H          -3.4370    2.0800   -1.2670 H       1  UNL1        0.0278
     32 H          -1.6910    2.2370   -1.2460 H       1  UNL1        0.0278
     33 H          -4.6720    1.8590    0.6930 H       1  UNL1        0.0620
     34 H          -4.8180    1.7630    3.1470 H       1  UNL1        0.0618
     35 H          -2.7730    1.3800    4.5000 H       1  UNL1        0.0618
     36 H          -0.6010    1.0720    3.3960 H       1  UNL1        0.0625
     37 H           3.8210    0.1900   -3.9500 H       1  UNL1        0.1465
     38 H           3.6140    0.5170   -2.3240 H       1  UNL1        0.1465
     39 H          -2.3190   -2.0680   -4.7670 H       1  UNL1        0.0647
     40 H          -3.1020   -3.6530   -3.0060 H       1  UNL1        0.0619
     41 H          -1.8330   -3.8200   -0.8630 H       1  UNL1        0.0647
     42 H           5.4210    1.2940    0.4680 H       1  UNL1        0.1029
     43 H           4.8290    2.5230    2.5470 H       1  UNL1        0.0457
     44 H           3.3730    1.8290    3.3190 H       1  UNL1        0.0457
     45 H           3.2600    3.3650    2.3950 H       1  UNL1        0.0457
@<TRIPOS>BOND
     1     1     2    1
     2     1    30    1
     3     1    31    1
     4     1    32    1
     5     2     3   ar
     6     2     7   ar
     7     3     4   ar
     8     3    33    1
     9     4     5   ar
    10     4    34    1
    11     5     6   ar
    12     5    35    1
    13     6     7   ar
    14     6    36    1
    15     7     8    1
    16     8     9   ar
    17     8    29   ar
    18     9    10   ar
    19    10    11    1
    20    10    23   ar
    21    11    12   am
    22    11    15    1
    23    12    13   am
    24    12    14    2
    25    13    37    1
    26    13    38    1
    27    15    16   ar
    28    15    21   ar
    29    16    17    1
    30    16    18   ar
    31    18    19   ar
    32    18    39    1
    33    19    20   ar
    34    19    40    1
    35    20    21   ar
    36    20    41    1
    37    21    22    1
    38    23    24   ar
    39    23    28   ar
    40    24    25   ar
    41    25    26   ar
    42    25    42    1
    43    26    27    1
    44    26    28   ar
    45    27    43    1
    46    27    44    1
    47    27    45    1
    48    28    29   ar
@<TRIPOS>MOLECULE
AD3CC00284789-I00-C00
 50 51 0 0 0
SMALL
GASTEIGER

@<TRIPOS>ATOM
      1 C           6.1590    0.4880    4.9770 C.3     1  UNL1       -0.0613
      2 C           6.0000    1.3830    3.7580 C.3     1  UNL1       -0.0305
      3 C           4.8040    0.9920    2.9280 C.ar    1  UNL1       -0.0475
      4 C           3.5470    1.5470    3.1870 C.ar    1  UNL1       -0.0568
      5 C           2.4300    1.1750    2.4290 C.ar    1  UNL1       -0.0402
      6 C           2.5500    0.2390    1.4030 C.ar    1  UNL1        0.0348
      7 N           1.4790   -0.1920    0.5920 N.am    1  UNL1       -0.2692
      8 C           0.1520    0.2140    0.6410 C.2     1  UNL1        0.3081
      9 O          -0.3060    1.0410    1.4200 O.2     1  UNL1       -0.2522
     10 N          -0.5890   -0.4520   -0.3220 N.am    1  UNL1       -0.2680
     11 C          -1.9520   -0.3010   -0.5750 C.ar    1  UNL1        0.0543
     12 C          -2.8710    0.5670    0.0900 C.ar    1  UNL1       -0.0289
     13 C          -4.1670    0.4870   -0.3940 C.ar    1  UNL1       -0.0023
     14 C          -5.4180    1.2530    0.0580 C.3     1  UNL1       -0.0064
     15 C          -5.9850    2.0910   -1.1050 C.3     1  UNL1       -0.0556
     16 C          -6.4960    0.2730    0.5620 C.3     1  UNL1       -0.0556
     17 C          -5.0920    2.2220    1.2160 C.3     1  UNL1       -0.0556
     18 S          -4.2460   -0.6620   -1.6700 S.2     1  UNL1       -0.0863
     19 C          -2.5810   -1.0350   -1.5690 C.ar    1  UNL1        0.0953
     20 C          -1.9580   -2.0190   -2.4510 C.2     1  UNL1        0.2523
     21 O          -0.7600   -2.2990   -2.3770 O.2     1  UNL1       -0.2696
     22 N          -2.7860   -2.6290   -3.3710 N.am    1  UNL1       -0.3139
     23 C          -2.3260   -3.6910   -4.2260 C.3     1  UNL1        0.0004
     24 C           3.8070   -0.3220    1.1480 C.ar    1  UNL1       -0.0402
     25 C           4.9240    0.0480    1.9040 C.ar    1  UNL1       -0.0568
     26 H           6.2940   -0.5600    4.6870 H       1  UNL1        0.0233
     27 H           7.0330    0.7940    5.5600 H       1  UNL1        0.0233
     28 H           5.2800    0.5440    5.6290 H       1  UNL1        0.0233
     29 H           6.9070    1.3350    3.1430 H       1  UNL1        0.0311
     30 H           5.9030    2.4280    4.0750 H       1  UNL1        0.0311
     31 H           3.4210    2.2770    3.9840 H       1  UNL1        0.0621
     32 H           1.4790    1.6380    2.6710 H       1  UNL1        0.0636
     33 H           1.7090   -0.8750   -0.1130 H       1  UNL1        0.1564
     34 H          -0.1180   -1.1290   -0.9150 H       1  UNL1        0.1564
     35 H          -2.5920    1.2300    0.8990 H       1  UNL1        0.0644
     36 H          -6.8410    2.6930   -0.7770 H       1  UNL1        0.0238
     37 H          -6.3330    1.4630   -1.9330 H       1  UNL1        0.0238
     38 H          -5.2290    2.7760   -1.5050 H       1  UNL1        0.0238
     39 H          -6.8540   -0.3900   -0.2340 H       1  UNL1        0.0238
     40 H          -7.3700    0.8120    0.9480 H       1  UNL1        0.0238
     41 H          -6.1110   -0.3600    1.3700 H       1  UNL1        0.0238
     42 H          -5.9860    2.7690    1.5380 H       1  UNL1        0.0238
     43 H          -4.3450    2.9670    0.9180 H       1  UNL1        0.0238
     44 H          -4.7040    1.6880    2.0910 H       1  UNL1        0.0238
     45 H          -3.7780   -2.4370   -3.3100 H       1  UNL1        0.1487
     46 H          -1.3230   -3.4700   -4.6010 H       1  UNL1        0.0426
     47 H          -3.0230   -3.7910   -5.0610 H       1  UNL1        0.0426
     48 H          -2.3030   -4.6190   -3.6490 H       1  UNL1        0.0426
     49 H           3.9390   -1.0580    0.3590 H       1  UNL1        0.0636
     50 H           5.8880   -0.4070    1.6870 H       1  UNL1        0.0621
@<TRIPOS>BOND
     1     1     2    1
     2     1    26    1
     3     1    27    1
     4     1    28    1
     5     2     3    1
     6     2    29    1
     7     2    30    1
     8     3     4   ar
     9     3    25   ar
    10     4     5   ar
    11     4    31    1
    12     5     6   ar
    13     5    32    1
    14     6     7    1
    15     6    24   ar
    16     7     8   am
    17     7    33    1
    18     8     9    2
    19     8    10   am
    20    10    11    1
    21    10    34    1
    22    11    12   ar
    23    11    19   ar
    24    12    13   ar
    25    12    35    1
    26    13    14    1
    27    13    18   ar
    28    14    15    1
    29    14    16    1
    30    14    17    1
    31    15    36    1
    32    15    37    1
    33    15    38    1
    34    16    39    1
    35    16    40    1
    36    16    41    1
    37    17    42    1
    38    17    43    1
    39    17    44    1
    40    18    19   ar
    41    19    20    1
    42    20    21    2
    43    20    22   am
    44    22    23    1
    45    22    45    1
    46    23    46    1
    47    23    47    1
    48    23    48    1
    49    24    25   ar
    50    24    49    1
    51    25    50    1
@<TRIPOS>MOLECULE
AD3CC00284934-I00-C00
 53 54 0 0 0
SMALL
GASTEIGER

@<TRIPOS>ATOM
      1 C          -4.1530    0.2450   -0.4300 C.3     1  UNL1        0.0366
      2 O          -3.2290    1.1500    0.1740 O.3     1  UNL1       -0.3796
      3 C          -3.4730    2.4970   -0.2780 C.3     1  UNL1        0.0815
      4 C          -2.4350    3.4250    0.3500 C.3     1  UNL1        0.1160
      5 O          -1.1240    2.9340    0.0250 O.3     1  UNL1       -0.4584
      6 C          -0.6100    3.3070   -1.1830 C.2     1  UNL1        0.3478
      7 O          -1.0770    4.2030   -1.8750 O.2     1  UNL1       -0.2443
      8 C           0.5030    2.4360   -1.5100 C.ar    1  UNL1        0.1176
      9 S           1.6900    2.9970   -2.6020 S.2     1  UNL1       -0.0844
     10 C           2.6080    1.5460   -2.4950 C.ar    1  UNL1       -0.0022
     11 C           3.9170    1.3820   -3.2800 C.3     1  UNL1       -0.0064
     12 C           4.5610    0.0050   -3.0100 C.3     1  UNL1       -0.0556
     13 C           3.6510    1.4830   -4.7950 C.3     1  UNL1       -0.0556
     14 C           4.9360    2.4610   -2.8620 C.3     1  UNL1       -0.0556
     15 C           1.9770    0.6480   -1.6490 C.ar    1  UNL1       -0.0289
     16 C           0.7600    1.1400   -1.0860 C.ar    1  UNL1        0.0562
     17 N          -0.1140    0.4600   -0.2380 N.am    1  UNL1       -0.2679
     18 C           0.0190   -0.8320    0.2420 C.2     1  UNL1        0.3081
     19 O           0.9560   -1.5770   -0.0140 O.2     1  UNL1       -0.2522
     20 N          -1.0670   -1.1490    1.0490 N.am    1  UNL1       -0.2692
     21 C          -1.3130   -2.3500    1.7430 C.ar    1  UNL1        0.0348
     22 C          -2.4980   -2.4240    2.4860 C.ar    1  UNL1       -0.0402
     23 C          -2.8210   -3.5790    3.2050 C.ar    1  UNL1       -0.0571
     24 C          -1.9570   -4.6770    3.2040 C.ar    1  UNL1       -0.0503
     25 C          -2.3130   -5.9310    3.9460 C.3     1  UNL1       -0.0397
     26 C          -0.7800   -4.6080    2.4520 C.ar    1  UNL1       -0.0571
     27 C          -0.4580   -3.4510    1.7320 C.ar    1  UNL1       -0.0402
     28 H          -5.1800    0.5170   -0.1680 H       1  UNL1        0.0524
     29 H          -3.9510   -0.7600   -0.0510 H       1  UNL1        0.0524
     30 H          -4.0260    0.2410   -1.5160 H       1  UNL1        0.0524
     31 H          -3.3870    2.5190   -1.3700 H       1  UNL1        0.0593
     32 H          -4.4810    2.8070    0.0160 H       1  UNL1        0.0593
     33 H          -2.5150    3.3890    1.4410 H       1  UNL1        0.0721
     34 H          -2.5690    4.4650    0.0340 H       1  UNL1        0.0721
     35 H           4.7960   -0.1280   -1.9470 H       1  UNL1        0.0238
     36 H           5.4980   -0.1100   -3.5680 H       1  UNL1        0.0238
     37 H           3.9000   -0.8150   -3.3130 H       1  UNL1        0.0238
     38 H           3.2810    2.4740   -5.0820 H       1  UNL1        0.0238
     39 H           4.5680    1.3040   -5.3690 H       1  UNL1        0.0238
     40 H           2.9060    0.7470   -5.1170 H       1  UNL1        0.0238
     41 H           4.5920    3.4710   -3.1140 H       1  UNL1        0.0238
     42 H           5.8970    2.3140   -3.3680 H       1  UNL1        0.0238
     43 H           5.1200    2.4350   -1.7810 H       1  UNL1        0.0238
     44 H           2.3740   -0.3400   -1.4480 H       1  UNL1        0.0644
     45 H          -0.9280    0.9800    0.0680 H       1  UNL1        0.1564
     46 H          -1.7820   -0.4370    1.1290 H       1  UNL1        0.1564
     47 H          -3.1870   -1.5850    2.5170 H       1  UNL1        0.0636
     48 H          -3.7510   -3.6130    3.7690 H       1  UNL1        0.0621
     49 H          -2.8840   -6.6010    3.2960 H       1  UNL1        0.0278
     50 H          -2.9130   -5.7030    4.8330 H       1  UNL1        0.0278
     51 H          -1.4120   -6.4510    4.2890 H       1  UNL1        0.0278
     52 H          -0.0980   -5.4540    2.4190 H       1  UNL1        0.0621
     53 H           0.4710   -3.4470    1.1710 H       1  UNL1        0.0636
@<TRIPOS>BOND
     1     1     2    1
     2     1    28    1
     3     1    29    1
     4     1    30    1
     5     2     3    1
     6     3     4    1
     7     3    31    1
     8     3    32    1
     9     4     5    1
    10     4    33    1
    11     4    34    1
    12     5     6    1
    13     6     7    2
    14     6     8    1
    15     8     9   ar
    16     8    16   ar
    17     9    10   ar
    18    10    11    1
    19    10    15   ar
    20    11    12    1
    21    11    13    1
    22    11    14    1
    23    12    35    1
    24    12    36    1
    25    12    37    1
    26    13    38    1
    27    13    39    1
    28    13    40    1
    29    14    41    1
    30    14    42    1
    31    14    43    1
    32    15    16   ar
    33    15    44    1
    34    16    17    1
    35    17    18   am
    36    17    45    1
    37    18    19    2
    38    18    20   am
    39    20    21    1
    40    20    46    1
    41    21    22   ar
    42    21    27   ar
    43    22    23   ar
    44    22    47    1
    45    23    24   ar
    46    23    48    1
    47    24    25    1
    48    24    26   ar
    49    25    49    1
    50    25    50    1
    51    25    51    1
    52    26    27   ar
    53    26    52    1
    54    27    53    1
@<TRIPOS>MOLECULE
AD3CC00285273-I00-C00
 50 51 0 0 0
SMALL
GASTEIGER

@<TRIPOS>ATOM
      1 C           3.4910   -0.5890   -4.0800 C.3     1  UNL1        0.0820
      2 O           3.3690   -0.4670   -2.6630 O.3     1  UNL1       -0.4634
      3 C           2.0840   -0.4140   -2.2160 C.2     1  UNL1        0.3574
      4 O           1.0990   -0.4570   -2.9470 O.2     1  UNL1       -0.2432
      5 C           2.0240   -0.2360   -0.7760 C.ar    1  UNL1        0.1484
      6 C           0.8950    0.1560   -0.0690 C.ar    1  UNL1        0.0671
      7 N          -0.3400    0.3590   -0.6710 N.am    1  UNL1       -0.2671
      8 C          -1.5050    0.7490   -0.0280 C.2     1  UNL1        0.3082
      9 O          -1.5960    0.9740    1.1720 O.2     1  UNL1       -0.2522
     10 N          -2.5460    0.8500   -0.9430 N.am    1  UNL1       -0.2692
     11 C          -3.8870    1.2100   -0.6960 C.ar    1  UNL1        0.0348
     12 C          -4.7500    1.2490   -1.7990 C.ar    1  UNL1       -0.0402
     13 C          -6.0960    1.5970   -1.6440 C.ar    1  UNL1       -0.0571
     14 C          -6.6010    1.9220   -0.3830 C.ar    1  UNL1       -0.0503
     15 C          -8.0500    2.2630   -0.2050 C.3     1  UNL1       -0.0397
     16 C          -5.7440    1.8690    0.7200 C.ar    1  UNL1       -0.0571
     17 C          -4.3970    1.5210    0.5640 C.ar    1  UNL1       -0.0402
     18 C           1.2710    0.3200    1.2770 C.ar    1  UNL1       -0.0183
     19 C           2.6220    0.0280    1.4120 C.ar    1  UNL1        0.0263
     20 C           3.4810    0.1580    2.6790 C.3     1  UNL1        0.0026
     21 C           2.7960    1.1120    3.6940 C.3     1  UNL1       -0.0547
     22 C           4.8630    0.7730    2.3870 C.3     1  UNL1       -0.0547
     23 C           3.6280   -1.2080    3.3730 C.3     1  UNL1       -0.0547
     24 N           3.0310   -0.4360    0.1660 N.ar    1  UNL1       -0.3398
     25 C           4.2840   -1.1020   -0.1330 C.3     1  UNL1        0.0124
     26 H           3.0510    0.2800   -4.5790 H       1  UNL1        0.0661
     27 H           3.0230   -1.5160   -4.4270 H       1  UNL1        0.0661
     28 H           4.5560   -0.6270   -4.3260 H       1  UNL1        0.0661
     29 H          -0.3720    0.1630   -1.6640 H       1  UNL1        0.1564
     30 H          -2.3130    0.6510   -1.9030 H       1  UNL1        0.1564
     31 H          -4.3900    1.0070   -2.7950 H       1  UNL1        0.0636
     32 H          -6.7450    1.6120   -2.5170 H       1  UNL1        0.0621
     33 H          -8.4500    2.7490   -1.1010 H       1  UNL1        0.0278
     34 H          -8.1890    2.9570    0.6300 H       1  UNL1        0.0278
     35 H          -8.6270    1.3540   -0.0090 H       1  UNL1        0.0278
     36 H          -6.1150    2.0990    1.7170 H       1  UNL1        0.0621
     37 H          -3.7750    1.4990    1.4530 H       1  UNL1        0.0636
     38 H           0.6230    0.6550    2.0770 H       1  UNL1        0.0654
     39 H           1.8340    0.7170    4.0400 H       1  UNL1        0.0239
     40 H           2.6150    2.1000    3.2530 H       1  UNL1        0.0239
     41 H           3.4180    1.2570    4.5850 H       1  UNL1        0.0239
     42 H           4.7710    1.6920    1.7960 H       1  UNL1        0.0239
     43 H           5.5260    0.0950    1.8460 H       1  UNL1        0.0239
     44 H           5.3860    1.0280    3.3170 H       1  UNL1        0.0239
     45 H           2.6470   -1.6350    3.6180 H       1  UNL1        0.0239
     46 H           4.1920   -1.1150    4.3090 H       1  UNL1        0.0239
     47 H           4.1500   -1.9410    2.7540 H       1  UNL1        0.0239
     48 H           4.1030   -1.9040   -0.8530 H       1  UNL1        0.0456
     49 H           4.9820   -0.3620   -0.5300 H       1  UNL1        0.0456
     50 H           4.6890   -1.5730    0.7600 H       1  UNL1        0.0456
@<TRIPOS>BOND
     1     1     2    1
     2     1    26    1
     3     1    27    1
     4     1    28    1
     5     2     3    1
     6     3     4    2
     7     3     5    1
     8     5     6   ar
     9     5    24   ar
    10     6     7    1
    11     6    18   ar
    12     7     8   am
    13     7    29    1
    14     8     9    2
    15     8    10   am
    16    10    11    1
    17    10    30    1
    18    11    12   ar
    19    11    17   ar
    20    12    13   ar
    21    12    31    1
    22    13    14   ar
    23    13    32    1
    24    14    15    1
    25    14    16   ar
    26    15    33    1
    27    15    34    1
    28    15    35    1
    29    16    17   ar
    30    16    36    1
    31    17    37    1
    32    18    19   ar
    33    18    38    1
    34    19    20    1
    35    19    24   ar
    36    20    21    1
    37    20    22    1
    38    20    23    1
    39    21    39    1
    40    21    40    1
    41    21    41    1
    42    22    42    1
    43    22    43    1
    44    22    44    1
    45    23    45    1
    46    23    46    1
    47    23    47    1
    48    24    25    1
    49    25    48    1
    50    25    49    1
    51    25    50    1
@<TRIPOS>MOLECULE
AD3CC00310690-I00-C00
 61 63 0 0 0
SMALL
GASTEIGER

@<TRIPOS>ATOM
      1 C           4.0220   -8.8010    2.9670 C.3     1  UNL1       -0.0622
      2 C           2.6210   -8.9620    2.4050 C.3     1  UNL1       -0.0215
      3 C           1.8000   -7.6840    2.5500 C.3     1  UNL1        0.0893
      4 O           0.5060   -7.9300    1.9990 O.3     1  UNL1       -0.4920
      5 C          -0.4020   -6.9110    2.0620 C.ar    1  UNL1        0.1206
      6 C          -0.1680   -5.6310    2.5650 C.ar    1  UNL1       -0.0189
      7 C          -1.1940   -4.6780    2.5680 C.ar    1  UNL1       -0.0445
      8 C          -2.4600   -4.9930    2.0640 C.ar    1  UNL1        0.0130
      9 S          -3.7830   -3.7970    2.0700 S.3     1  UNL1       -0.0894
     10 C          -3.0790   -2.4760    1.1030 C.ar    1  UNL1        0.0128
     11 C          -2.6570   -2.6830   -0.2120 C.ar    1  UNL1       -0.0462
     12 C          -2.1140   -1.6280   -0.9540 C.ar    1  UNL1       -0.0394
     13 C          -1.9950   -0.3490   -0.3980 C.ar    1  UNL1        0.0348
     14 N          -1.4290    0.6560   -1.2080 N.am    1  UNL1       -0.2692
     15 C          -1.3450    2.0140   -0.9390 C.2     1  UNL1        0.3092
     16 O          -1.8320    2.5750    0.0320 O.2     1  UNL1       -0.2521
     17 N          -0.6180    2.6470   -1.9390 N.am    1  UNL1       -0.2541
     18 C          -0.4460    4.0190   -2.0370 C.ar    1  UNL1        0.1243
     19 C           0.6100    4.6570   -2.6520 C.ar    1  UNL1        0.0017
     20 C           0.3800    6.0460   -2.4930 C.ar    1  UNL1        0.0702
     21 C           1.2600    7.1950   -2.9600 C.3     1  UNL1        0.0063
     22 C           1.3140    7.2150   -4.5010 C.3     1  UNL1       -0.0546
     23 C           0.7330    8.5660   -2.4810 C.3     1  UNL1       -0.0546
     24 C           2.6920    7.0230   -2.4120 C.3     1  UNL1       -0.0546
     25 N          -0.7780    6.2630   -1.8630 N.ar    1  UNL1       -0.1743
     26 N          -1.2810    5.0310   -1.6170 N.ar    1  UNL1       -0.2532
     27 C          -2.6340    4.9630   -1.1170 C.3     1  UNL1        0.0322
     28 C          -2.4190   -0.1450    0.9160 C.ar    1  UNL1       -0.0394
     29 C          -2.9630   -1.2000    1.6590 C.ar    1  UNL1       -0.0462
     30 C          -2.6950   -6.2770    1.5700 C.ar    1  UNL1       -0.0445
     31 C          -1.6690   -7.2270    1.5660 C.ar    1  UNL1       -0.0189
     32 H           4.5870   -9.7310    2.8500 H       1  UNL1        0.0231
     33 H           3.9910   -8.5550    4.0330 H       1  UNL1        0.0231
     34 H           4.5650   -8.0060    2.4460 H       1  UNL1        0.0231
     35 H           2.6750   -9.2460    1.3470 H       1  UNL1        0.0295
     36 H           2.1080   -9.7870    2.9130 H       1  UNL1        0.0295
     37 H           1.7150   -7.4240    3.6120 H       1  UNL1        0.0696
     38 H           2.2920   -6.8700    2.0030 H       1  UNL1        0.0696
     39 H           0.7980   -5.3390    2.9630 H       1  UNL1        0.0654
     40 H          -0.9930   -3.6880    2.9710 H       1  UNL1        0.0630
     41 H          -2.7460   -3.6640   -0.6720 H       1  UNL1        0.0629
     42 H          -1.7940   -1.8260   -1.9740 H       1  UNL1        0.0636
     43 H          -1.1900    0.3870   -2.1510 H       1  UNL1        0.1564
     44 H           0.1100    2.0860   -2.3590 H       1  UNL1        0.1578
     45 H           1.4600    4.1910   -3.1280 H       1  UNL1        0.0671
     46 H           1.7320    6.2840   -4.9020 H       1  UNL1        0.0239
     47 H           1.9360    8.0400   -4.8660 H       1  UNL1        0.0239
     48 H           0.3120    7.3350   -4.9310 H       1  UNL1        0.0239
     49 H           0.6810    8.6150   -1.3870 H       1  UNL1        0.0239
     50 H           1.3850    9.3800   -2.8170 H       1  UNL1        0.0239
     51 H          -0.2710    8.7690   -2.8720 H       1  UNL1        0.0239
     52 H           3.1560    6.0990   -2.7750 H       1  UNL1        0.0239
     53 H           3.3370    7.8550   -2.7170 H       1  UNL1        0.0239
     54 H           2.6930    6.9830   -1.3160 H       1  UNL1        0.0239
     55 H          -3.1350    4.0830   -1.5260 H       1  UNL1        0.0473
     56 H          -2.6000    4.9470   -0.0260 H       1  UNL1        0.0473
     57 H          -3.1800    5.8520   -1.4500 H       1  UNL1        0.0473
     58 H          -2.3380    0.8240    1.3990 H       1  UNL1        0.0636
     59 H          -3.2920   -1.0100    2.6780 H       1  UNL1        0.0629
     60 H          -3.6730   -6.5520    1.1840 H       1  UNL1        0.0630
     61 H          -1.8610   -8.2240    1.1770 H       1  UNL1        0.0654
@<TRIPOS>BOND
     1     1     2    1
     2     1    32    1
     3     1    33    1
     4     1    34    1
     5     2     3    1
     6     2    35    1
     7     2    36    1
     8     3     4    1
     9     3    37    1
    10     3    38    1
    11     4     5    1
    12     5     6   ar
    13     5    31   ar
    14     6     7   ar
    15     6    39    1
    16     7     8   ar
    17     7    40    1
    18     8     9    1
    19     8    30   ar
    20     9    10    1
    21    10    11   ar
    22    10    29   ar
    23    11    12   ar
    24    11    41    1
    25    12    13   ar
    26    12    42    1
    27    13    14    1
    28    13    28   ar
    29    14    15   am
    30    14    43    1
    31    15    16    2
    32    15    17   am
    33    17    18    1
    34    17    44    1
    35    18    19   ar
    36    18    26   ar
    37    19    20   ar
    38    19    45    1
    39    20    21    1
    40    20    25   ar
    41    21    22    1
    42    21    23    1
    43    21    24    1
    44    22    46    1
    45    22    47    1
    46    22    48    1
    47    23    49    1
    48    23    50    1
    49    23    51    1
    50    24    52    1
    51    24    53    1
    52    24    54    1
    53    25    26   ar
    54    26    27    1
    55    27    55    1
    56    27    56    1
    57    27    57    1
    58    28    29   ar
    59    28    58    1
    60    29    59    1
    61    30    31   ar
    62    30    60    1
    63    31    61    1
@<TRIPOS>MOLECULE
AD3CC00310949-I00-C00
 62 64 0 0 0
SMALL
GASTEIGER

@<TRIPOS>ATOM
      1 C           6.0650    7.3490   -6.3990 C.3     1  UNL1       -0.0305
      2 C           4.9340    6.3690   -6.1560 C.3     1  UNL1        0.0913
      3 O           5.4970    5.1540   -5.6450 O.3     1  UNL1       -0.4504
      4 C           4.5820    4.1810   -5.3790 C.2     1  UNL1        0.4045
      5 O           3.3810    4.3090   -5.5560 O.2     1  UNL1       -0.2261
      6 N           5.2560    3.0940   -4.9010 N.am    1  UNL1       -0.2512
      7 C           4.7370    1.8550   -4.4890 C.ar    1  UNL1        0.0367
      8 C           5.6540    0.8940   -4.0430 C.ar    1  UNL1       -0.0369
      9 C           5.2170   -0.3630   -3.6160 C.ar    1  UNL1       -0.0176
     10 C           3.8560   -0.6610   -3.6160 C.ar    1  UNL1        0.1286
     11 O           3.4930   -1.9260   -3.2170 O.3     1  UNL1       -0.4560
     12 C           2.4290   -2.0360   -2.3520 C.ar    1  UNL1        0.1286
     13 C           2.3110   -1.2650   -1.1960 C.ar    1  UNL1       -0.0176
     14 C           1.2230   -1.4540   -0.3360 C.ar    1  UNL1       -0.0370
     15 C           0.2540   -2.4190   -0.6200 C.ar    1  UNL1        0.0350
     16 N          -0.8640   -2.6750    0.1990 N.am    1  UNL1       -0.2692
     17 C          -1.3030   -1.9360    1.2880 C.2     1  UNL1        0.3092
     18 O          -0.8260   -0.8740    1.6620 O.2     1  UNL1       -0.2521
     19 N          -2.3690   -2.5850    1.8970 N.am    1  UNL1       -0.2541
     20 C          -3.1170   -2.0590    2.9400 C.ar    1  UNL1        0.1243
     21 C          -3.8060   -2.7880    3.8860 C.ar    1  UNL1        0.0017
     22 C          -4.4050   -1.8450    4.7530 C.ar    1  UNL1        0.0702
     23 C          -5.2530   -2.0780    5.9940 C.3     1  UNL1        0.0063
     24 C          -4.5830   -1.4300    7.2230 C.3     1  UNL1       -0.0546
     25 C          -5.4360   -3.5810    6.2910 C.3     1  UNL1       -0.0546
     26 C          -6.6530   -1.4600    5.8030 C.3     1  UNL1       -0.0546
     27 N          -4.1430   -0.5970    4.3470 N.ar    1  UNL1       -0.1743
     28 N          -3.3880   -0.7410    3.2340 N.ar    1  UNL1       -0.2532
     29 C          -3.1230    0.4500    2.4620 C.3     1  UNL1        0.0322
     30 C           0.3990   -3.2080   -1.7700 C.ar    1  UNL1       -0.0370
     31 C           1.4850   -3.0210   -2.6300 C.ar    1  UNL1       -0.0176
     32 C           2.9370    0.2800   -4.0790 C.ar    1  UNL1       -0.0176
     33 C           3.3770    1.5380   -4.5070 C.ar    1  UNL1       -0.0369
     34 H           5.6830    8.2960   -6.7900 H       1  UNL1        0.0262
     35 H           6.6120    7.5440   -5.4710 H       1  UNL1        0.0262
     36 H           6.7850    6.9360   -7.1130 H       1  UNL1        0.0262
     37 H           4.4110    6.1670   -7.0980 H       1  UNL1        0.0695
     38 H           4.2330    6.7880   -5.4250 H       1  UNL1        0.0695
     39 H           6.2540    3.2330   -4.8500 H       1  UNL1        0.1582
     40 H           6.7200    1.1070   -4.0250 H       1  UNL1        0.0637
     41 H           5.9350   -1.1040   -3.2780 H       1  UNL1        0.0655
     42 H           3.0610   -0.5190   -0.9470 H       1  UNL1        0.0655
     43 H           1.1700   -0.8360    0.5550 H       1  UNL1        0.0637
     44 H          -1.5040   -3.3840   -0.1280 H       1  UNL1        0.1564
     45 H          -2.3390   -3.5940    1.8480 H       1  UNL1        0.1578
     46 H          -3.8460   -3.8650    3.9600 H       1  UNL1        0.0671
     47 H          -4.4800   -0.3450    7.1040 H       1  UNL1        0.0239
     48 H          -5.1680   -1.6060    8.1330 H       1  UNL1        0.0239
     49 H          -3.5780   -1.8380    7.3870 H       1  UNL1        0.0239
     50 H          -5.9330   -4.0960    5.4610 H       1  UNL1        0.0239
     51 H          -4.4720   -4.0760    6.4610 H       1  UNL1        0.0239
     52 H          -6.0470   -3.7370    7.1870 H       1  UNL1        0.0239
     53 H          -7.2890   -1.6360    6.6780 H       1  UNL1        0.0239
     54 H          -7.1590   -1.8880    4.9290 H       1  UNL1        0.0239
     55 H          -6.5990   -0.3750    5.6500 H       1  UNL1        0.0239
     56 H          -2.1790    0.8810    2.8040 H       1  UNL1        0.0473
     57 H          -3.1010    0.2040    1.3990 H       1  UNL1        0.0473
     58 H          -3.9310    1.1690    2.6310 H       1  UNL1        0.0473
     59 H          -0.3280   -3.9780   -2.0150 H       1  UNL1        0.0637
     60 H           1.5910   -3.6400   -3.5160 H       1  UNL1        0.0655
     61 H           1.8760    0.0490   -4.1160 H       1  UNL1        0.0655
     62 H           2.6300    2.2460   -4.8520 H       1  UNL1        0.0637
@<TRIPOS>BOND
     1     1     2    1
     2     1    34    1
     3     1    35    1
     4     1    36    1
     5     2     3    1
     6     2    37    1
     7     2    38    1
     8     3     4    1
     9     4     5    2
    10     4     6   am
    11     6     7    1
    12     6    39    1
    13     7     8   ar
    14     7    33   ar
    15     8     9   ar
    16     8    40    1
    17     9    10   ar
    18     9    41    1
    19    10    11    1
    20    10    32   ar
    21    11    12    1
    22    12    13   ar
    23    12    31   ar
    24    13    14   ar
    25    13    42    1
    26    14    15   ar
    27    14    43    1
    28    15    16    1
    29    15    30   ar
    30    16    17   am
    31    16    44    1
    32    17    18    2
    33    17    19   am
    34    19    20    1
    35    19    45    1
    36    20    21   ar
    37    20    28   ar
    38    21    22   ar
    39    21    46    1
    40    22    23    1
    41    22    27   ar
    42    23    24    1
    43    23    25    1
    44    23    26    1
    45    24    47    1
    46    24    48    1
    47    24    49    1
    48    25    50    1
    49    25    51    1
    50    25    52    1
    51    26    53    1
    52    26    54    1
    53    26    55    1
    54    27    28   ar
    55    28    29    1
    56    29    56    1
    57    29    57    1
    58    29    58    1
    59    30    31   ar
    60    30    59    1
    61    31    60    1
    62    32    33   ar
    63    32    61    1
    64    33    62    1
@<TRIPOS>MOLECULE
AD3CC00340223-I00-C00
 53 55 0 0 0
SMALL
GASTEIGER

@<TRIPOS>ATOM
      1 C           5.1150    1.3930   -0.8850 C.3     1  UNL1       -0.0546
      2 C           4.5080    1.1400    0.5100 C.3     1  UNL1        0.0063
      3 C           5.1480   -0.1270    1.1120 C.3     1  UNL1       -0.0546
      4 C           4.8800    2.3390    1.4090 C.3     1  UNL1       -0.0546
      5 C           3.0030    0.9520    0.4000 C.ar    1  UNL1        0.0706
      6 C           2.3070    0.0360   -0.4240 C.ar    1  UNL1        0.0021
      7 C           0.9720    0.1800   -0.1130 C.ar    1  UNL1        0.1299
      8 N          -0.1310   -0.5880   -0.4780 N.am    1  UNL1       -0.2538
      9 C          -0.0490   -1.7090   -1.2970 C.2     1  UNL1        0.3092
     10 O           0.9780   -2.1220   -1.8170 O.2     1  UNL1       -0.2521
     11 N          -1.3020   -2.2780   -1.4560 N.am    1  UNL1       -0.2678
     12 C          -1.6500   -3.4540   -2.1690 C.ar    1  UNL1        0.0546
     13 C          -0.7000   -4.3100   -2.7350 C.ar    1  UNL1       -0.0389
     14 C          -1.0960   -5.4610   -3.4230 C.ar    1  UNL1       -0.0585
     15 C          -2.4470   -5.7720   -3.5510 C.ar    1  UNL1       -0.0419
     16 C          -3.4110   -4.9340   -2.9890 C.ar    1  UNL1        0.0610
     17 CL         -5.0690   -5.3850   -3.1850 Cl      1  UNL1       -0.0820
     18 C          -3.0190   -3.7780   -2.2970 C.ar    1  UNL1        0.0804
     19 CL         -4.2060   -2.7190   -1.5880 Cl      1  UNL1       -0.0801
     20 N           0.9140    1.2840    0.7410 N.ar    1  UNL1       -0.2181
     21 C          -0.2150    2.0400    1.1760 C.ar    1  UNL1        0.0675
     22 C          -1.4060    2.0760    0.4350 C.ar    1  UNL1       -0.0344
     23 C          -2.4910    2.8330    0.8860 C.ar    1  UNL1       -0.0349
     24 C          -2.3770    3.5720    2.0660 C.ar    1  UNL1        0.0880
     25 S          -3.7600    4.5240    2.6500 S.O2    1  UNL1       -0.0059
     26 C          -3.4050    6.1610    2.0680 C.3     1  UNL1        0.0596
     27 O          -4.9410    4.0450    1.9560 O.2     1  UNL1       -0.1696
     28 O          -3.7000    4.5290    4.0990 O.2     1  UNL1       -0.1696
     29 C          -1.1950    3.5560    2.8080 C.ar    1  UNL1       -0.0349
     30 C          -0.1100    2.8030    2.3520 C.ar    1  UNL1       -0.0344
     31 N           2.1530    1.6480    1.1620 N.ar    1  UNL1       -0.1691
     32 H           6.1970    1.5550   -0.8240 H       1  UNL1        0.0239
     33 H           4.6690    2.2770   -1.3560 H       1  UNL1        0.0239
     34 H           4.9490    0.5440   -1.5590 H       1  UNL1        0.0239
     35 H           6.2340   -0.0140    1.2120 H       1  UNL1        0.0239
     36 H           4.9650   -1.0070    0.4850 H       1  UNL1        0.0239
     37 H           4.7400   -0.3420    2.1060 H       1  UNL1        0.0239
     38 H           4.4550    3.2740    1.0240 H       1  UNL1        0.0239
     39 H           5.9670    2.4700    1.4650 H       1  UNL1        0.0239
     40 H           4.5140    2.2040    2.4330 H       1  UNL1        0.0239
     41 H           2.7470   -0.6920   -1.0910 H       1  UNL1        0.0671
     42 H          -0.9900   -0.4430    0.0320 H       1  UNL1        0.1578
     43 H          -2.0930   -1.7560   -1.1010 H       1  UNL1        0.1564
     44 H           0.3660   -4.1160   -2.6550 H       1  UNL1        0.0637
     45 H          -0.3420   -6.1140   -3.8580 H       1  UNL1        0.0619
     46 H          -2.7410   -6.6710   -4.0890 H       1  UNL1        0.0633
     47 H          -1.5000    1.5790   -0.5260 H       1  UNL1        0.0639
     48 H          -3.4120    2.8530    0.3050 H       1  UNL1        0.0637
     49 H          -2.4670    6.5020    2.5090 H       1  UNL1        0.0468
     50 H          -4.2210    6.8160    2.3820 H       1  UNL1        0.0468
     51 H          -3.3400    6.1460    0.9790 H       1  UNL1        0.0468
     52 H          -1.1070    4.1160    3.7370 H       1  UNL1        0.0637
     53 H           0.8100    2.8000    2.9370 H       1  UNL1        0.0639
@<TRIPOS>BOND
     1     2     1    1
     2     1    32    1
     3     1    33    1
     4     1    34    1
     5     2     3    1
     6     2     4    1
     7     2     5    1
     8     3    35    1
     9     3    36    1
    10     3    37    1
    11     4    38    1
    12     4    39    1
    13     4    40    1
    14     5     6   ar
    15     5    31   ar
    16     6     7   ar
    17     6    41    1
    18     7     8    1
    19     7    20   ar
    20     8     9   am
    21     8    42    1
    22     9    10    2
    23     9    11   am
    24    11    12    1
    25    11    43    1
    26    12    13   ar
    27    12    18   ar
    28    13    14   ar
    29    13    44    1
    30    14    15   ar
    31    14    45    1
    32    15    16   ar
    33    15    46    1
    34    16    17    1
    35    16    18   ar
    36    18    19    1
    37    20    21    1
    38    20    31   ar
    39    21    22   ar
    40    21    30   ar
    41    22    23   ar
    42    22    47    1
    43    23    24   ar
    44    23    48    1
    45    24    25    1
    46    24    29   ar
    47    25    26    1
    48    25    27    2
    49    25    28    2
    50    26    49    1
    51    26    50    1
    52    26    51    1
    53    29    30   ar
    54    29    52    1
    55    30    53    1
@<TRIPOS>MOLECULE
AD3CC00340223-I00-C00
 53 55 0 0 0
SMALL
GASTEIGER

@<TRIPOS>ATOM
      1 C           5.1150    1.3930   -0.8850 C.3     1  UNL1       -0.0546
      2 C           4.5080    1.1400    0.5100 C.3     1  UNL1        0.0063
      3 C           5.1480   -0.1270    1.1120 C.3     1  UNL1       -0.0546
      4 C           4.8800    2.3390    1.4090 C.3     1  UNL1       -0.0546
      5 C           3.0030    0.9520    0.4000 C.ar    1  UNL1        0.0706
      6 C           2.3070    0.0360   -0.4240 C.ar    1  UNL1        0.0021
      7 C           0.9720    0.1800   -0.1130 C.ar    1  UNL1        0.1299
      8 N          -0.1310   -0.5880   -0.4780 N.am    1  UNL1       -0.2538
      9 C          -0.0490   -1.7090   -1.2970 C.2     1  UNL1        0.3092
     10 O           0.9780   -2.1220   -1.8170 O.2     1  UNL1       -0.2521
     11 N          -1.3020   -2.2780   -1.4560 N.am    1  UNL1       -0.2678
     12 C          -1.6500   -3.4540   -2.1690 C.ar    1  UNL1        0.0546
     13 C          -0.7000   -4.3100   -2.7350 C.ar    1  UNL1       -0.0389
     14 C          -1.0960   -5.4610   -3.4230 C.ar    1  UNL1       -0.0585
     15 C          -2.4470   -5.7720   -3.5510 C.ar    1  UNL1       -0.0419
     16 C          -3.4110   -4.9340   -2.9890 C.ar    1  UNL1        0.0610
     17 CL         -5.0690   -5.3850   -3.1850 Cl      1  UNL1       -0.0820
     18 C          -3.0190   -3.7780   -2.2970 C.ar    1  UNL1        0.0804
     19 CL         -4.2060   -2.7190   -1.5880 Cl      1  UNL1       -0.0801
     20 N           0.9140    1.2840    0.7410 N.ar    1  UNL1       -0.2181
     21 C          -0.2150    2.0400    1.1760 C.ar    1  UNL1        0.0675
     22 C          -1.4060    2.0760    0.4350 C.ar    1  UNL1       -0.0344
     23 C          -2.4910    2.8330    0.8860 C.ar    1  UNL1       -0.0349
     24 C          -2.3770    3.5720    2.0660 C.ar    1  UNL1        0.0880
     25 S          -3.7600    4.5240    2.6500 S.O2    1  UNL1       -0.0059
     26 C          -3.4050    6.1610    2.0680 C.3     1  UNL1        0.0596
     27 O          -4.9410    4.0450    1.9560 O.2     1  UNL1       -0.1696
     28 O          -3.7000    4.5290    4.0990 O.2     1  UNL1       -0.1696
     29 C          -1.1950    3.5560    2.8080 C.ar    1  UNL1       -0.0349
     30 C          -0.1100    2.8030    2.3520 C.ar    1  UNL1       -0.0344
     31 N           2.1530    1.6480    1.1620 N.ar    1  UNL1       -0.1691
     32 H           6.1970    1.5550   -0.8240 H       1  UNL1        0.0239
     33 H           4.6690    2.2770   -1.3560 H       1  UNL1        0.0239
     34 H           4.9490    0.5440   -1.5590 H       1  UNL1        0.0239
     35 H           6.2340   -0.0140    1.2120 H       1  UNL1        0.0239
     36 H           4.9650   -1.0070    0.4850 H       1  UNL1        0.0239
     37 H           4.7400   -0.3420    2.1060 H       1  UNL1        0.0239
     38 H           4.4550    3.2740    1.0240 H       1  UNL1        0.0239
     39 H           5.9670    2.4700    1.4650 H       1  UNL1        0.0239
     40 H           4.5140    2.2040    2.4330 H       1  UNL1        0.0239
     41 H           2.7470   -0.6920   -1.0910 H       1  UNL1        0.0671
     42 H          -0.9900   -0.4430    0.0320 H       1  UNL1        0.1578
     43 H          -2.0930   -1.7560   -1.1010 H       1  UNL1        0.1564
     44 H           0.3660   -4.1160   -2.6550 H       1  UNL1        0.0637
     45 H          -0.3420   -6.1140   -3.8580 H       1  UNL1        0.0619
     46 H          -2.7410   -6.6710   -4.0890 H       1  UNL1        0.0633
     47 H          -1.5000    1.5790   -0.5260 H       1  UNL1        0.0639
     48 H          -3.4120    2.8530    0.3050 H       1  UNL1        0.0637
     49 H          -2.4670    6.5020    2.5090 H       1  UNL1        0.0468
     50 H          -4.2210    6.8160    2.3820 H       1  UNL1        0.0468
     51 H          -3.3400    6.1460    0.9790 H       1  UNL1        0.0468
     52 H          -1.1070    4.1160    3.7370 H       1  UNL1        0.0637
     53 H           0.8100    2.8000    2.9370 H       1  UNL1        0.0639
@<TRIPOS>BOND
     1     2     1    1
     2     1    32    1
     3     1    33    1
     4     1    34    1
     5     2     3    1
     6     2     4    1
     7     2     5    1
     8     3    35    1
     9     3    36    1
    10     3    37    1
    11     4    38    1
    12     4    39    1
    13     4    40    1
    14     5     6   ar
    15     5    31   ar
    16     6     7   ar
    17     6    41    1
    18     7     8    1
    19     7    20   ar
    20     8     9   am
    21     8    42    1
    22     9    10    2
    23     9    11   am
    24    11    12    1
    25    11    43    1
    26    12    13   ar
    27    12    18   ar
    28    13    14   ar
    29    13    44    1
    30    14    15   ar
    31    14    45    1
    32    15    16   ar
    33    15    46    1
    34    16    17    1
    35    16    18   ar
    36    18    19    1
    37    20    21    1
    38    20    31   ar
    39    21    22   ar
    40    21    30   ar
    41    22    23   ar
    42    22    47    1
    43    23    24   ar
    44    23    48    1
    45    24    25    1
    46    24    29   ar
    47    25    26    1
    48    25    27    2
    49    25    28    2
    50    26    49    1
    51    26    50    1
    52    26    51    1
    53    29    30   ar
    54    29    52    1
    55    30    53    1
@<TRIPOS>MOLECULE
AD3CC00340784-I00-C01
 51 53 0 0 0
SMALL
GASTEIGER

@<TRIPOS>ATOM
      1 C           6.8170   -3.3010   -0.6250 C.3     1  UNL1        0.0788
      2 O           5.9770   -2.2980   -1.1830 O.3     1  UNL1       -0.4951
      3 C           4.7460   -2.1350   -0.6130 C.ar    1  UNL1        0.1202
      4 C           3.9500   -1.1550   -1.2110 C.ar    1  UNL1       -0.0179
      5 C           2.6660   -0.8770   -0.7300 C.ar    1  UNL1       -0.0327
      6 C           2.1690   -1.5740    0.3760 C.ar    1  UNL1        0.0677
      7 N           0.8660   -1.3220    0.9000 N.ar    1  UNL1       -0.2181
      8 N           0.2420   -2.2910    1.6200 N.ar    1  UNL1       -0.1691
      9 C          -1.0240   -1.8800    1.7410 C.ar    1  UNL1        0.0706
     10 C          -2.0790   -2.7410    2.4180 C.3     1  UNL1        0.0063
     11 C          -1.5650   -4.1670    2.7120 C.3     1  UNL1       -0.0546
     12 C          -3.3220   -2.8680    1.5130 C.3     1  UNL1       -0.0546
     13 C          -2.4980   -2.0970    3.7540 C.3     1  UNL1       -0.0546
     14 C          -1.1820   -0.5750    1.2200 C.ar    1  UNL1        0.0021
     15 C           0.0660   -0.1820    0.7860 C.ar    1  UNL1        0.1299
     16 N           0.5280    1.0610    0.3630 N.am    1  UNL1       -0.2538
     17 C          -0.2690    2.1980    0.3040 C.2     1  UNL1        0.3092
     18 O          -1.4590    2.2370    0.5850 O.2     1  UNL1       -0.2521
     19 N           0.4760    3.2810   -0.1380 N.am    1  UNL1       -0.2678
     20 C           0.0630    4.6290   -0.2900 C.ar    1  UNL1        0.0546
     21 C          -1.1870    5.0950    0.1320 C.ar    1  UNL1       -0.0389
     22 C          -1.5420    6.4360   -0.0350 C.ar    1  UNL1       -0.0585
     23 C          -0.6520    7.3310   -0.6230 C.ar    1  UNL1       -0.0419
     24 C           0.6030    6.8880   -1.0450 C.ar    1  UNL1        0.0610
     25 CL          1.6590    8.0550   -1.7620 Cl      1  UNL1       -0.0820
     26 C           0.9650    5.5430   -0.8800 C.ar    1  UNL1        0.0804
     27 CL          2.5270    4.9700   -1.3980 Cl      1  UNL1       -0.0801
     28 C           2.9540   -2.5830    0.9550 C.ar    1  UNL1       -0.0327
     29 C           4.2390   -2.8540    0.4690 C.ar    1  UNL1       -0.0179
     30 H           7.7530   -3.3060   -1.1900 H       1  UNL1        0.0660
     31 H           6.3640   -4.2930   -0.7210 H       1  UNL1        0.0660
     32 H           7.0590   -3.0760    0.4190 H       1  UNL1        0.0660
     33 H           4.3300   -0.6170   -2.0770 H       1  UNL1        0.0655
     34 H           2.0630   -0.1650   -1.2850 H       1  UNL1        0.0640
     35 H          -0.7030   -4.1520    3.3900 H       1  UNL1        0.0239
     36 H          -1.2560   -4.6780    1.7930 H       1  UNL1        0.0239
     37 H          -2.3410   -4.7790    3.1850 H       1  UNL1        0.0239
     38 H          -4.0850   -3.5070    1.9730 H       1  UNL1        0.0239
     39 H          -3.7840   -1.8940    1.3200 H       1  UNL1        0.0239
     40 H          -3.0600   -3.3060    0.5420 H       1  UNL1        0.0239
     41 H          -1.6390   -1.9870    4.4270 H       1  UNL1        0.0239
     42 H          -2.9250   -1.0980    3.6030 H       1  UNL1        0.0239
     43 H          -3.2510   -2.7040    4.2690 H       1  UNL1        0.0239
     44 H          -2.0820    0.0240    1.2440 H       1  UNL1        0.0671
     45 H           1.5270    1.1860    0.2900 H       1  UNL1        0.1578
     46 H           1.4030    3.0850   -0.4920 H       1  UNL1        0.1564
     47 H          -1.9130    4.4390    0.6030 H       1  UNL1        0.0637
     48 H          -2.5200    6.7790    0.2970 H       1  UNL1        0.0619
     49 H          -0.9410    8.3720   -0.7470 H       1  UNL1        0.0633
     50 H           2.5830   -3.1610    1.8000 H       1  UNL1        0.0640
     51 H           4.8120   -3.6350    0.9580 H       1  UNL1        0.0655
@<TRIPOS>BOND
     1     1     2    1
     2     1    30    1
     3     1    31    1
     4     1    32    1
     5     2     3    1
     6     3     4   ar
     7     3    29   ar
     8     4     5   ar
     9     4    33    1
    10     5     6   ar
    11     5    34    1
    12     6     7    1
    13     6    28   ar
    14     7     8   ar
    15     7    15   ar
    16     8     9   ar
    17     9    10    1
    18     9    14   ar
    19    10    11    1
    20    10    12    1
    21    10    13    1
    22    11    35    1
    23    11    36    1
    24    11    37    1
    25    12    38    1
    26    12    39    1
    27    12    40    1
    28    13    41    1
    29    13    42    1
    30    13    43    1
    31    14    15   ar
    32    14    44    1
    33    15    16    1
    34    16    17   am
    35    16    45    1
    36    17    18    2
    37    17    19   am
    38    19    20    1
    39    19    46    1
    40    20    21   ar
    41    20    26   ar
    42    21    22   ar
    43    21    47    1
    44    22    23   ar
    45    22    48    1
    46    23    24   ar
    47    23    49    1
    48    24    25    1
    49    24    26   ar
    50    26    27    1
    51    28    29   ar
    52    28    50    1
    53    29    51    1
@<TRIPOS>MOLECULE
AD3CC00340998-I00-C00
 36 37 0 0 0
SMALL
GASTEIGER

@<TRIPOS>ATOM
      1 C           0.3210   -3.7910    0.3400 C.3     1  UNL1       -0.0545
      2 C           1.7930   -3.3300    0.2930 C.3     1  UNL1        0.0078
      3 C           2.4690   -4.0300   -0.9040 C.3     1  UNL1       -0.0545
      4 C           2.4750   -3.7940    1.5960 C.3     1  UNL1       -0.0545
      5 C           1.9080   -1.8240    0.1500 C.ar    1  UNL1        0.0909
      6 C           0.8830   -0.8470    0.0600 C.ar    1  UNL1        0.0237
      7 C           1.5450    0.3480   -0.0550 C.ar    1  UNL1        0.2254
      8 N           1.1730    1.6610   -0.1780 N.am    1  UNL1       -0.2378
      9 C          -0.1490    2.0650   -0.2130 C.2     1  UNL1        0.3103
     10 O          -1.1020    1.3000   -0.1380 O.2     1  UNL1       -0.2521
     11 N          -0.2370    3.4440   -0.3430 N.am    1  UNL1       -0.2691
     12 C          -1.4040    4.2330   -0.4150 C.ar    1  UNL1        0.0349
     13 C          -2.7030    3.7210   -0.3640 C.ar    1  UNL1       -0.0391
     14 C          -3.8080    4.5760   -0.4420 C.ar    1  UNL1       -0.0416
     15 C          -3.6190    5.9490   -0.5720 C.ar    1  UNL1        0.0411
     16 CL         -4.9780    6.9980   -0.6680 Cl      1  UNL1       -0.0835
     17 C          -2.3320    6.4740   -0.6250 C.ar    1  UNL1       -0.0416
     18 C          -1.2290    5.6180   -0.5470 C.ar    1  UNL1       -0.0391
     19 O           2.8830    0.1120   -0.0360 O.2     1  UNL1       -0.3390
     20 N           3.1170   -1.2420    0.0920 N.ar    1  UNL1       -0.0805
     21 H           0.2490   -4.8800    0.4430 H       1  UNL1        0.0239
     22 H          -0.2120   -3.3450    1.1880 H       1  UNL1        0.0239
     23 H          -0.2160   -3.5120   -0.5750 H       1  UNL1        0.0239
     24 H           2.3770   -5.1200   -0.8310 H       1  UNL1        0.0239
     25 H           3.5380   -3.7940   -0.9580 H       1  UNL1        0.0239
     26 H           2.0160   -3.7180   -1.8520 H       1  UNL1        0.0239
     27 H           2.0260   -3.3090    2.4710 H       1  UNL1        0.0239
     28 H           2.3830   -4.8780    1.7290 H       1  UNL1        0.0239
     29 H           3.5440   -3.5520    1.6000 H       1  UNL1        0.0239
     30 H          -0.1860   -0.9950    0.0770 H       1  UNL1        0.0688
     31 H           1.9250    2.3270   -0.2430 H       1  UNL1        0.1593
     32 H           0.6360    3.9450   -0.3930 H       1  UNL1        0.1564
     33 H          -2.8960    2.6580   -0.2630 H       1  UNL1        0.0636
     34 H          -4.8110    4.1590   -0.4000 H       1  UNL1        0.0633
     35 H          -2.1790    7.5450   -0.7270 H       1  UNL1        0.0633
     36 H          -0.2340    6.0540   -0.5900 H       1  UNL1        0.0636
@<TRIPOS>BOND
     1     2     1    1
     2     1    21    1
     3     1    22    1
     4     1    23    1
     5     2     3    1
     6     2     4    1
     7     2     5    1
     8     3    24    1
     9     3    25    1
    10     3    26    1
    11     4    27    1
    12     4    28    1
    13     4    29    1
    14     5     6   ar
    15     5    20   ar
    16     6     7   ar
    17     6    30    1
    18     7     8    1
    19     7    19   ar
    20     8     9   am
    21     8    31    1
    22     9    10    2
    23     9    11   am
    24    11    12    1
    25    11    32    1
    26    12    13   ar
    27    12    18   ar
    28    13    14   ar
    29    13    33    1
    30    14    15   ar
    31    14    34    1
    32    15    16    1
    33    15    17   ar
    34    17    18   ar
    35    17    35    1
    36    18    36    1
    37    19    20   ar
@<TRIPOS>MOLECULE
AD3CC00354003-I00-C00
 67 73 0 0 0
SMALL
GASTEIGER

@<TRIPOS>ATOM
      1 C          -5.4690   -2.6160   -1.2000 C.3     1  UNL1        0.0119
      2 N          -4.2670   -2.5280   -2.0030 N.ar    1  UNL1       -0.3492
      3 C          -4.0530   -3.4140   -3.0340 C.ar    1  UNL1        0.0054
      4 C          -2.7110   -3.4230   -3.3050 C.ar    1  UNL1       -0.0364
      5 C          -2.1000   -2.4710   -2.4470 C.ar    1  UNL1        0.0005
      6 C          -0.7540   -2.1310   -2.2390 C.ar    1  UNL1       -0.0519
      7 C          -0.4250   -1.1550   -1.3050 C.ar    1  UNL1       -0.0513
      8 C          -1.4290   -0.4330   -0.6440 C.ar    1  UNL1        0.0088
      9 C          -1.0350    0.5720    0.2950 C.ar    1  UNL1        0.0561
     10 N           0.2140    0.9240    0.7590 N.ar    1  UNL1       -0.3534
     11 C           0.1480    1.9600    1.6590 C.ar    1  UNL1        0.0507
     12 C           1.1950    2.6090    2.3440 C.ar    1  UNL1       -0.0234
     13 C           2.6410    2.2230    2.1650 C.3     1  UNL1       -0.0246
     14 C           3.2250    2.8030    0.8700 C.3     1  UNL1       -0.0364
     15 C           4.3340    1.9210    0.2910 C.3     1  UNL1       -0.0036
     16 N           3.7530    0.6780   -0.2410 N.3     1  UNL1       -0.3132
     17 C           4.7670   -0.2270   -0.8210 C.3     1  UNL1        0.0078
     18 C           5.7750   -0.7780    0.2030 C.3     1  UNL1       -0.0352
     19 C           5.1160   -1.6860    1.2440 C.3     1  UNL1       -0.0254
     20 C           4.3470   -2.8330    0.5910 C.3     1  UNL1        0.0554
     21 O           5.2840   -3.7160   -0.0240 O.3     1  UNL1       -0.3918
     22 C           3.3590   -2.3320   -0.4620 C.3     1  UNL1       -0.0254
     23 C           4.0290   -1.4060   -1.4850 C.3     1  UNL1       -0.0352
     24 C           0.8290    3.6590    3.1990 C.ar    1  UNL1       -0.0566
     25 C          -0.5040    4.0240    3.3640 C.ar    1  UNL1       -0.0608
     26 C          -1.5200    3.3540    2.6720 C.ar    1  UNL1       -0.0520
     27 C          -1.1960    2.2990    1.7940 C.ar    1  UNL1        0.0084
     28 C          -1.9450    1.4220    0.9380 C.ar    1  UNL1        0.0209
     29 C          -3.2850    1.2490    0.5810 C.ar    1  UNL1        0.0596
     30 C          -3.7040    0.2610   -0.3190 C.ar    1  UNL1        0.0596
     31 C          -2.8160   -0.6590   -0.9010 C.ar    1  UNL1        0.0210
     32 C          -3.1150   -1.7970   -1.7410 C.ar    1  UNL1        0.0574
     33 C          -5.1240    0.5520   -0.5780 C.2     1  UNL1        0.2519
     34 O          -5.8050    0.1430   -1.4970 O.2     1  UNL1       -0.2697
     35 N          -5.5160    1.4800    0.3320 N.am    1  UNL1       -0.2483
     36 C          -4.4550    2.0350    0.9660 C.2     1  UNL1        0.2519
     37 O          -4.4870    3.0270    1.6650 O.2     1  UNL1       -0.2697
     38 H          -5.3220   -2.1220   -0.2390 H       1  UNL1        0.0456
     39 H          -6.3010   -2.1900   -1.7650 H       1  UNL1        0.0456
     40 H          -5.6730   -3.6740   -1.0060 H       1  UNL1        0.0456
     41 H          -4.8600   -4.0170   -3.4300 H       1  UNL1        0.0809
     42 H          -2.2140   -4.0700   -4.0150 H       1  UNL1        0.0639
     43 H           0.0300   -2.6550   -2.7800 H       1  UNL1        0.0624
     44 H           0.6280   -0.9490   -1.1430 H       1  UNL1        0.0624
     45 H           1.0810    0.4800    0.4890 H       1  UNL1        0.1659
     46 H           3.2360    2.5600    3.0220 H       1  UNL1        0.0314
     47 H           2.7020    1.1280    2.1790 H       1  UNL1        0.0314
     48 H           3.6320    3.8000    1.0840 H       1  UNL1        0.0281
     49 H           2.4500    2.9540    0.1070 H       1  UNL1        0.0281
     50 H           5.0640    1.7210    1.0810 H       1  UNL1        0.0424
     51 H           4.8410    2.4660   -0.5130 H       1  UNL1        0.0424
     52 H           3.1120    0.9420   -0.9920 H       1  UNL1        0.1222
     53 H           5.3140    0.3150   -1.6040 H       1  UNL1        0.0460
     54 H           6.3170    0.0280    0.7070 H       1  UNL1        0.0281
     55 H           6.5420   -1.3510   -0.3360 H       1  UNL1        0.0281
     56 H           5.9000   -2.0900    1.8970 H       1  UNL1        0.0291
     57 H           4.4390   -1.0970    1.8740 H       1  UNL1        0.0291
     58 H           3.8170   -3.4030    1.3620 H       1  UNL1        0.0593
     59 H           4.7880   -4.4870   -0.3490 H       1  UNL1        0.2098
     60 H           2.9200   -3.1820   -0.9980 H       1  UNL1        0.0291
     61 H           2.5400   -1.8030    0.0370 H       1  UNL1        0.0291
     62 H           4.7470   -1.9860   -2.0800 H       1  UNL1        0.0281
     63 H           3.2750   -1.0390   -2.1930 H       1  UNL1        0.0281
     64 H           1.5940    4.2030    3.7490 H       1  UNL1        0.0621
     65 H          -0.7640    4.8390    4.0350 H       1  UNL1        0.0618
     66 H          -2.5490    3.6630    2.8230 H       1  UNL1        0.0624
     67 H          -6.4080    1.9460    0.2790 H       1  UNL1        0.1581
@<TRIPOS>BOND
     1     1     2    1
     2     1    38    1
     3     1    39    1
     4     1    40    1
     5     2     3   ar
     6     2    32   ar
     7     3     4   ar
     8     3    41    1
     9     4     5   ar
    10     4    42    1
    11     5     6   ar
    12     5    32   ar
    13     6     7   ar
    14     6    43    1
    15     7     8   ar
    16     7    44    1
    17     8     9   ar
    18     8    31   ar
    19     9    10   ar
    20     9    28   ar
    21    10    11   ar
    22    10    45    1
    23    11    12   ar
    24    11    27   ar
    25    12    13    1
    26    12    24   ar
    27    13    14    1
    28    13    46    1
    29    13    47    1
    30    14    15    1
    31    14    48    1
    32    14    49    1
    33    15    16    1
    34    15    50    1
    35    15    51    1
    36    16    17    1
    37    16    52    1
    38    17    18    1
    39    17    23    1
    40    17    53    1
    41    18    19    1
    42    18    54    1
    43    18    55    1
    44    19    20    1
    45    19    56    1
    46    19    57    1
    47    20    21    1
    48    20    22    1
    49    20    58    1
    50    21    59    1
    51    22    23    1
    52    22    60    1
    53    22    61    1
    54    23    62    1
    55    23    63    1
    56    24    25   ar
    57    24    64    1
    58    25    26   ar
    59    25    65    1
    60    26    27   ar
    61    26    66    1
    62    27    28   ar
    63    28    29   ar
    64    29    30   ar
    65    29    36    1
    66    30    31   ar
    67    30    33    1
    68    31    32   ar
    69    33    34    2
    70    33    35   am
    71    35    36   am
    72    35    67    1
    73    36    37    2
@<TRIPOS>MOLECULE
AD3CC00356792-I00-C00
 38 40 0 0 0
SMALL
GASTEIGER

@<TRIPOS>ATOM
      1 C          -4.0810    1.9970    2.1600 C.3     1  UNL1        0.0788
      2 O          -3.6040    1.2540    3.2750 O.3     1  UNL1       -0.4949
      3 C          -2.5080    0.4620    3.0740 C.ar    1  UNL1        0.1271
      4 C          -2.0680   -0.2250    4.2100 C.ar    1  UNL1        0.0225
      5 C          -0.9600   -1.0660    4.1430 C.ar    1  UNL1        0.1348
      6 O          -0.5920   -1.7020    5.2970 O.3     1  UNL1       -0.5058
      7 C          -0.2820   -1.2270    2.9340 C.ar    1  UNL1        0.1092
      8 C           0.8880   -2.0990    2.8150 C.ar    1  UNL1        0.2379
      9 O           1.3230   -2.7370    3.7710 O.2     1  UNL1       -0.2830
     10 C           1.5380   -2.1920    1.4880 C.ar    1  UNL1        0.2082
     11 O           2.6340   -3.0260    1.3780 O.3     1  UNL1       -0.5007
     12 C           1.0230   -1.4790    0.4700 C.ar    1  UNL1        0.1807
     13 C           1.5860   -1.5020   -0.8950 C.ar    1  UNL1        0.0247
     14 C           0.7410   -1.7200   -1.9960 C.ar    1  UNL1       -0.0473
     15 C           1.2410   -1.7230   -3.3060 C.ar    1  UNL1       -0.0156
     16 C           2.5970   -1.4980   -3.5330 C.ar    1  UNL1        0.1613
     17 O           3.2220   -1.4710   -4.7530 O.3     1  UNL1       -0.4915
     18 C           2.4060   -1.7210   -5.8910 C.3     1  UNL1        0.0790
     19 C           3.4320   -1.2710   -2.4340 C.ar    1  UNL1        0.1591
     20 O           4.7680   -1.0380   -2.6240 O.3     1  UNL1       -0.5033
     21 C           2.9460   -1.2690   -1.1300 C.ar    1  UNL1       -0.0057
     22 O          -0.0980   -0.6660    0.5790 O.2     1  UNL1       -0.4507
     23 C          -0.7160   -0.5490    1.8000 C.ar    1  UNL1        0.1465
     24 C          -1.8280    0.2970    1.8650 C.ar    1  UNL1        0.0233
     25 H          -4.9450    2.5810    2.4910 H       1  UNL1        0.0660
     26 H          -3.3220    2.7000    1.8000 H       1  UNL1        0.0660
     27 H          -4.4160    1.3320    1.3570 H       1  UNL1        0.0660
     28 H          -2.5940   -0.1020    5.1550 H       1  UNL1        0.0691
     29 H           0.1960   -2.2580    5.1100 H       1  UNL1        0.2922
     30 H           2.7640   -3.4080    2.2720 H       1  UNL1        0.2924
     31 H          -0.3220   -1.8970   -1.8410 H       1  UNL1        0.0626
     32 H           0.5440   -1.9020   -4.1170 H       1  UNL1        0.0655
     33 H           3.0470   -1.6760   -6.7770 H       1  UNL1        0.0660
     34 H           1.9650   -2.7220   -5.8490 H       1  UNL1        0.0660
     35 H           1.6340   -0.9520   -6.0000 H       1  UNL1        0.0660
     36 H           4.8980   -1.0930   -3.5910 H       1  UNL1        0.2923
     37 H           3.6340   -1.0860   -0.3100 H       1  UNL1        0.0662
     38 H          -2.1370    0.8110    0.9610 H       1  UNL1        0.0691
@<TRIPOS>BOND
     1     1     2    1
     2     1    25    1
     3     1    26    1
     4     1    27    1
     5     2     3    1
     6     3     4   ar
     7     3    24   ar
     8     4     5   ar
     9     4    28    1
    10     5     6    1
    11     5     7   ar
    12     6    29    1
    13     7     8   ar
    14     7    23   ar
    15     8     9    2
    16     8    10   ar
    17    10    11    1
    18    10    12   ar
    19    11    30    1
    20    12    13    1
    21    12    22   ar
    22    13    14   ar
    23    13    21   ar
    24    14    15   ar
    25    14    31    1
    26    15    16   ar
    27    15    32    1
    28    16    17    1
    29    16    19   ar
    30    17    18    1
    31    18    33    1
    32    18    34    1
    33    18    35    1
    34    19    20    1
    35    19    21   ar
    36    20    36    1
    37    21    37    1
    38    22    23   ar
    39    23    24   ar
    40    24    38    1
@<TRIPOS>MOLECULE
AD3CC00375362-I00-C00
 38 41 0 0 0
SMALL
GASTEIGER

@<TRIPOS>ATOM
      1 F           2.2280    0.0580   -5.9550 F       1  UNL1       -0.2055
      2 C           1.7490    0.1910   -4.7120 C.ar    1  UNL1        0.1234
      3 C           2.1700   -0.6860   -3.7190 C.ar    1  UNL1       -0.0259
      4 C           1.6720   -0.5480   -2.4210 C.ar    1  UNL1       -0.0512
      5 C           0.7580    0.4720   -2.1210 C.ar    1  UNL1       -0.0141
      6 C           0.2410    0.6020   -0.7720 C.ar    1  UNL1        0.0285
      7 C          -0.3960   -0.3930    0.0250 C.ar    1  UNL1       -0.0075
      8 C          -0.7430    0.2040    1.2190 C.ar    1  UNL1        0.1363
      9 C          -1.4170   -0.2480    2.4340 C.ar    1  UNL1        0.0174
     10 C          -1.9740   -1.5340    2.5050 C.ar    1  UNL1       -0.0497
     11 C          -2.6210   -1.9750    3.6650 C.ar    1  UNL1       -0.0427
     12 C          -2.7160   -1.1310    4.7680 C.ar    1  UNL1        0.0410
     13 CL         -3.5110   -1.6710    6.1950 Cl      1  UNL1       -0.0835
     14 C          -2.1710    0.1490    4.7210 C.ar    1  UNL1       -0.0427
     15 C          -1.5250    0.5860    3.5590 C.ar    1  UNL1       -0.0497
     16 O          -0.3440    1.5100    1.1980 O.2     1  UNL1       -0.4542
     17 C           0.2660    1.7540   -0.0010 C.ar    1  UNL1        0.1434
     18 C           0.7880    3.1090   -0.1500 C.ar    1  UNL1        0.0207
     19 C           1.9890    3.3550   -0.8190 C.ar    1  UNL1       -0.0329
     20 C           2.4310    4.6630   -0.9340 C.ar    1  UNL1        0.0282
     21 N           1.7690    5.7260   -0.4320 N.ar    1  UNL1       -0.2632
     22 C           0.6170    5.4690    0.2210 C.ar    1  UNL1        0.0282
     23 C           0.0940    4.1980    0.3870 C.ar    1  UNL1       -0.0329
     24 C           0.3370    1.3420   -3.1380 C.ar    1  UNL1       -0.0512
     25 C           0.8370    1.2020   -4.4340 C.ar    1  UNL1       -0.0259
     26 H           2.8810   -1.4690   -3.9610 H       1  UNL1        0.0646
     27 H           2.0090   -1.2350   -1.6480 H       1  UNL1        0.0624
     28 H          -0.5900   -1.4180   -0.2560 H       1  UNL1        0.0662
     29 H          -1.9170   -2.2130    1.6570 H       1  UNL1        0.0625
     30 H          -3.0470   -2.9740    3.6990 H       1  UNL1        0.0632
     31 H          -2.2410    0.8110    5.5790 H       1  UNL1        0.0632
     32 H          -1.1020    1.5890    3.5440 H       1  UNL1        0.0625
     33 H           2.5850    2.5520   -1.2370 H       1  UNL1        0.0640
     34 H           3.3600    4.8950   -1.4460 H       1  UNL1        0.0830
     35 H           0.1070    6.3400    0.6210 H       1  UNL1        0.0830
     36 H          -0.8400    4.0620    0.9220 H       1  UNL1        0.0640
     37 H          -0.3850    2.1300   -2.9310 H       1  UNL1        0.0624
     38 H           0.5180    1.8730   -5.2260 H       1  UNL1        0.0646
@<TRIPOS>BOND
     1     1     2    1
     2     2     3   ar
     3     2    25   ar
     4     3     4   ar
     5     3    26    1
     6     4     5   ar
     7     4    27    1
     8     5     6    1
     9     5    24   ar
    10     6     7   ar
    11     6    17   ar
    12     7     8   ar
    13     7    28    1
    14     8     9    1
    15     8    16   ar
    16     9    10   ar
    17     9    15   ar
    18    10    11   ar
    19    10    29    1
    20    11    12   ar
    21    11    30    1
    22    12    13    1
    23    12    14   ar
    24    14    15   ar
    25    14    31    1
    26    15    32    1
    27    16    17   ar
    28    17    18    1
    29    18    19   ar
    30    18    23   ar
    31    19    20   ar
    32    19    33    1
    33    20    21   ar
    34    20    34    1
    35    21    22   ar
    36    22    23   ar
    37    22    35    1
    38    23    36    1
    39    24    25   ar
    40    24    37    1
    41    25    38    1
@<TRIPOS>MOLECULE
AD3CC00383967-I00-C00
 47 50 0 0 0
SMALL
GASTEIGER

@<TRIPOS>ATOM
      1 C           3.4530    4.3880    3.1390 C.3     1  UNL1       -0.0128
      2 N           3.0400    3.1110    2.5560 N.3     1  UNL1       -0.3052
      3 C           3.3310    3.0870    1.1170 C.3     1  UNL1        0.0005
      4 C           2.9730    1.7280    0.5180 C.3     1  UNL1       -0.0192
      5 C           1.4990    1.3950    0.7880 C.3     1  UNL1        0.0383
      6 N           1.0930    0.0990    0.2500 N.ar    1  UNL1       -0.3252
      7 C           1.7710   -1.0760    0.4350 C.ar    1  UNL1        0.0974
      8 N           1.2040   -2.0730   -0.1990 N.ar    1  UNL1       -0.2351
      9 C           0.0740   -1.5410   -0.7720 C.ar    1  UNL1        0.0982
     10 C          -0.8540   -2.3650   -1.5290 C.ar    1  UNL1        0.0027
     11 C          -2.2420   -2.2510   -1.3630 C.ar    1  UNL1       -0.0498
     12 C          -3.1090   -3.0570   -2.1050 C.ar    1  UNL1       -0.0258
     13 C          -2.5870   -3.9820   -3.0020 C.ar    1  UNL1        0.1234
     14 F          -3.4210   -4.7530   -3.7130 F       1  UNL1       -0.2055
     15 C          -1.2150   -4.1230   -3.1670 C.ar    1  UNL1       -0.0258
     16 C          -0.3480   -3.3180   -2.4260 C.ar    1  UNL1       -0.0498
     17 C          -0.0170   -0.1740   -0.5340 C.ar    1  UNL1        0.0953
     18 C          -0.9850    0.8210   -0.9780 C.ar    1  UNL1        0.0945
     19 C          -1.3150    0.9740   -2.3050 C.ar    1  UNL1       -0.0159
     20 C          -2.2470    1.9450   -2.5660 C.ar    1  UNL1        0.0333
     21 N          -2.8070    2.7090   -1.6110 N.ar    1  UNL1       -0.2231
     22 C          -2.4070    2.4890   -0.3570 C.ar    1  UNL1        0.2131
     23 N          -2.9800    3.2520    0.6390 N.pl3   1  UNL1       -0.3275
     24 N          -1.5220    1.5610    0.0110 N.ar    1  UNL1       -0.2131
     25 C           1.1880    1.5030    2.2820 C.3     1  UNL1       -0.0192
     26 C           1.6150    2.8660    2.8220 C.3     1  UNL1        0.0005
     27 H           2.9120    5.2360    2.7040 H       1  UNL1        0.0391
     28 H           3.2850    4.3900    4.2220 H       1  UNL1        0.0391
     29 H           4.5270    4.5500    2.9890 H       1  UNL1        0.0391
     30 H           4.4010    3.2620    0.9510 H       1  UNL1        0.0427
     31 H           2.7850    3.8810    0.5910 H       1  UNL1        0.0427
     32 H           3.6340    0.9640    0.9480 H       1  UNL1        0.0298
     33 H           3.1660    1.7380   -0.5620 H       1  UNL1        0.0298
     34 H           0.9170    2.1570    0.2570 H       1  UNL1        0.0529
     35 H           2.6700   -1.1500    1.0340 H       1  UNL1        0.1029
     36 H          -2.6600   -1.5510   -0.6430 H       1  UNL1        0.0625
     37 H          -4.1840   -2.9750   -1.9810 H       1  UNL1        0.0646
     38 H          -0.8280   -4.8610   -3.8620 H       1  UNL1        0.0646
     39 H           0.7280   -3.4360   -2.5420 H       1  UNL1        0.0625
     40 H          -0.8770    0.3750   -3.0920 H       1  UNL1        0.0655
     41 H          -2.5820    2.1460   -3.5790 H       1  UNL1        0.0831
     42 H          -2.9770    2.7360    1.5070 H       1  UNL1        0.1452
     43 H          -3.8710    3.6050    0.3180 H       1  UNL1        0.1452
     44 H           0.1150    1.3600    2.4610 H       1  UNL1        0.0298
     45 H           1.7040    0.7100    2.8390 H       1  UNL1        0.0298
     46 H           1.4310    2.8780    3.9030 H       1  UNL1        0.0427
     47 H           0.9920    3.6540    2.3770 H       1  UNL1        0.0427
@<TRIPOS>BOND
     1     1     2    1
     2     1    27    1
     3     1    28    1
     4     1    29    1
     5     2     3    1
     6     2    26    1
     7     3     4    1
     8     3    30    1
     9     3    31    1
    10     4     5    1
    11     4    32    1
    12     4    33    1
    13     5     6    1
    14     5    25    1
    15     5    34    1
    16     6     7   ar
    17     6    17   ar
    18     7     8   ar
    19     7    35    1
    20     8     9   ar
    21     9    10    1
    22     9    17   ar
    23    10    11   ar
    24    10    16   ar
    25    11    12   ar
    26    11    36    1
    27    12    13   ar
    28    12    37    1
    29    13    14    1
    30    13    15   ar
    31    15    16   ar
    32    15    38    1
    33    16    39    1
    34    17    18    1
    35    18    19   ar
    36    18    24   ar
    37    19    20   ar
    38    19    40    1
    39    20    21   ar
    40    20    41    1
    41    21    22   ar
    42    22    23    1
    43    22    24   ar
    44    23    42    1
    45    23    43    1
    46    25    26    1
    47    25    44    1
    48    25    45    1
    49    26    46    1
    50    26    47    1
@<TRIPOS>MOLECULE
AD3CC00393133-I00-C01
 49 52 0 0 0
SMALL
GASTEIGER

@<TRIPOS>ATOM
      1 C          -2.6820    1.2840   -0.5360 C.3     1  UNL1        0.0788
      2 O          -1.2910    1.4710   -0.3210 O.3     1  UNL1       -0.4943
      3 C          -0.4490    1.3230   -1.3920 C.ar    1  UNL1        0.1342
      4 C          -0.8530    0.8940   -2.6630 C.ar    1  UNL1        0.0047
      5 C           0.1270    0.7780   -3.6630 C.ar    1  UNL1        0.0500
      6 N           0.0080    0.3890   -4.9790 N.ar    1  UNL1       -0.3605
      7 C           1.2290    0.4240   -5.5970 C.ar    1  UNL1        0.0027
      8 C           2.1570    0.8470   -4.6720 C.ar    1  UNL1       -0.0366
      9 C           1.4740    1.0720   -3.4460 C.ar    1  UNL1        0.0006
     10 C           1.8760    1.5040   -2.1710 C.ar    1  UNL1       -0.0369
     11 C           0.9050    1.6100   -1.1630 C.ar    1  UNL1        0.0791
     12 C           1.3550    2.0680    0.1650 C.2     1  UNL1        0.2502
     13 O           1.3770    3.2790    0.3720 O.2     1  UNL1       -0.2699
     14 N           1.7650    1.1110    1.0890 N.am    1  UNL1       -0.2950
     15 C           1.5690   -0.3350    0.9440 C.3     1  UNL1        0.0278
     16 C           0.3850   -0.8170    1.8110 C.3     1  UNL1        0.0151
     17 N           0.5230   -0.3970    3.2200 N.3     1  UNL1       -0.2952
     18 C          -0.5440   -0.9050    4.0930 C.3     1  UNL1        0.0241
     19 C          -1.9680   -0.5240    3.7460 C.ar    1  UNL1       -0.0334
     20 C          -2.7580   -1.3690    2.9510 C.ar    1  UNL1       -0.0573
     21 C          -4.0740   -1.0260    2.6350 C.ar    1  UNL1       -0.0615
     22 C          -4.6170    0.1650    3.1110 C.ar    1  UNL1       -0.0617
     23 C          -3.8460    1.0130    3.9030 C.ar    1  UNL1       -0.0615
     24 C          -2.5310    0.6690    4.2220 C.ar    1  UNL1       -0.0573
     25 C           0.7220    1.0650    3.3180 C.3     1  UNL1        0.0151
     26 C           1.9330    1.5270    2.4790 C.3     1  UNL1        0.0278
     27 H          -3.0630    1.9750   -1.2950 H       1  UNL1        0.0660
     28 H          -3.1980    1.5040    0.4030 H       1  UNL1        0.0660
     29 H          -2.9010    0.2450   -0.8020 H       1  UNL1        0.0660
     30 H          -1.8840    0.6520   -2.8930 H       1  UNL1        0.0675
     31 H          -0.8600    0.1210   -5.4230 H       1  UNL1        0.1653
     32 H           1.3330    0.1520   -6.6390 H       1  UNL1        0.0807
     33 H           3.2140    0.9820   -4.8560 H       1  UNL1        0.0638
     34 H           2.9130    1.7530   -1.9660 H       1  UNL1        0.0633
     35 H           2.4950   -0.8210    1.2760 H       1  UNL1        0.0477
     36 H           1.4100   -0.6210   -0.0980 H       1  UNL1        0.0477
     37 H           0.3400   -1.9110    1.7530 H       1  UNL1        0.0442
     38 H          -0.5420   -0.4230    1.3810 H       1  UNL1        0.0442
     39 H          -0.4730   -2.0010    4.1230 H       1  UNL1        0.0476
     40 H          -0.3400   -0.6000    5.1290 H       1  UNL1        0.0476
     41 H          -2.3490   -2.3040    2.5740 H       1  UNL1        0.0621
     42 H          -4.6760   -1.6900    2.0200 H       1  UNL1        0.0618
     43 H          -5.6420    0.4330    2.8670 H       1  UNL1        0.0618
     44 H          -4.2680    1.9430    4.2760 H       1  UNL1        0.0618
     45 H          -1.9440    1.3410    4.8450 H       1  UNL1        0.0621
     46 H          -0.1680    1.6020    2.9690 H       1  UNL1        0.0442
     47 H           0.9000    1.3460    4.3630 H       1  UNL1        0.0442
     48 H           2.8560    1.0670    2.8550 H       1  UNL1        0.0477
     49 H           2.0480    2.6120    2.5580 H       1  UNL1        0.0477
@<TRIPOS>BOND
     1     1     2    1
     2     1    27    1
     3     1    28    1
     4     1    29    1
     5     2     3    1
     6     3     4   ar
     7     3    11   ar
     8     4     5   ar
     9     4    30    1
    10     5     6   ar
    11     5     9   ar
    12     6     7   ar
    13     6    31    1
    14     7     8   ar
    15     7    32    1
    16     8     9   ar
    17     8    33    1
    18     9    10   ar
    19    10    11   ar
    20    10    34    1
    21    11    12    1
    22    12    13    2
    23    12    14   am
    24    14    15    1
    25    14    26    1
    26    15    16    1
    27    15    35    1
    28    15    36    1
    29    16    17    1
    30    16    37    1
    31    16    38    1
    32    17    18    1
    33    17    25    1
    34    18    19    1
    35    18    39    1
    36    18    40    1
    37    19    20   ar
    38    19    24   ar
    39    20    21   ar
    40    20    41    1
    41    21    22   ar
    42    21    42    1
    43    22    23   ar
    44    22    43    1
    45    23    24   ar
    46    23    44    1
    47    24    45    1
    48    25    26    1
    49    25    46    1
    50    25    47    1
    51    26    48    1
    52    26    49    1
@<TRIPOS>MOLECULE
AD3CC00393385-I00-C01
 51 54 0 0 0
SMALL
GASTEIGER

@<TRIPOS>ATOM
      1 C          -3.3650    1.4550   -1.1260 C.3     1  UNL1       -0.0480
      2 C          -3.1170    0.1680   -0.3200 C.3     1  UNL1        0.0238
      3 C          -2.3310   -0.8480   -1.1870 C.3     1  UNL1        0.0307
      4 N          -0.9050   -0.5240   -1.3040 N.am    1  UNL1       -0.2920
      5 C          -0.2360   -1.0300   -2.4210 C.2     1  UNL1        0.2469
      6 O          -0.7770   -1.7130   -3.2880 O.2     1  UNL1       -0.2700
      7 C           1.1990   -0.7160   -2.5950 C.ar    1  UNL1        0.0376
      8 C           2.1010   -1.7670   -2.7680 C.ar    1  UNL1       -0.0477
      9 C           3.4630   -1.5140   -2.9550 C.ar    1  UNL1       -0.0371
     10 C           3.8750   -0.1760   -2.9780 C.ar    1  UNL1        0.0465
     11 N           5.1320    0.3620   -3.1470 N.ar    1  UNL1       -0.3606
     12 C           5.0700    1.7300   -3.1120 C.ar    1  UNL1        0.0027
     13 C           3.7550    2.0880   -2.9230 C.ar    1  UNL1       -0.0366
     14 C           2.9890    0.8930   -2.8340 C.ar    1  UNL1        0.0004
     15 C           1.6200    0.6220   -2.6500 C.ar    1  UNL1       -0.0405
     16 C          -0.2270   -0.2230   -0.0220 C.3     1  UNL1        0.0363
     17 C           0.0630   -1.5110    0.7610 C.3     1  UNL1       -0.0452
     18 C          -1.0500    0.7780    0.8280 C.3     1  UNL1        0.0180
     19 N          -2.4590    0.3680    0.9940 N.3     1  UNL1       -0.2923
     20 C          -3.2010    1.2770    1.8770 C.3     1  UNL1        0.0244
     21 C          -2.7910    1.1540    3.3310 C.ar    1  UNL1       -0.0334
     22 C          -2.3830    2.2830    4.0560 C.ar    1  UNL1       -0.0573
     23 C          -2.0190    2.1700    5.3990 C.ar    1  UNL1       -0.0615
     24 C          -2.0630    0.9290    6.0320 C.ar    1  UNL1       -0.0617
     25 C          -2.4720   -0.2000    5.3250 C.ar    1  UNL1       -0.0615
     26 C          -2.8360   -0.0880    3.9830 C.ar    1  UNL1       -0.0573
     27 H          -4.0050    2.1550   -0.5800 H       1  UNL1        0.0245
     28 H          -3.8820    1.2200   -2.0630 H       1  UNL1        0.0245
     29 H          -2.4350    1.9690   -1.3850 H       1  UNL1        0.0245
     30 H          -4.1000   -0.2850   -0.1320 H       1  UNL1        0.0475
     31 H          -2.4010   -1.8510   -0.7470 H       1  UNL1        0.0480
     32 H          -2.7800   -0.9130   -2.1850 H       1  UNL1        0.0480
     33 H           1.7410   -2.7940   -2.7590 H       1  UNL1        0.0626
     34 H           4.1670   -2.3300   -3.0860 H       1  UNL1        0.0638
     35 H           5.9740   -0.1800   -3.2820 H       1  UNL1        0.1653
     36 H           5.9630    2.3290   -3.2300 H       1  UNL1        0.0807
     37 H           3.3810    3.1020   -2.8570 H       1  UNL1        0.0638
     38 H           0.9040    1.4320   -2.5540 H       1  UNL1        0.0632
     39 H           0.7380    0.2470   -0.2260 H       1  UNL1        0.0510
     40 H           0.6180   -1.2860    1.6790 H       1  UNL1        0.0248
     41 H          -0.8550   -2.0350    1.0450 H       1  UNL1        0.0248
     42 H           0.6670   -2.2040    0.1670 H       1  UNL1        0.0248
     43 H          -0.5600    0.8740    1.8040 H       1  UNL1        0.0445
     44 H          -0.9980    1.7690    0.3580 H       1  UNL1        0.0445
     45 H          -3.0960    2.3170    1.5450 H       1  UNL1        0.0476
     46 H          -4.2740    1.0440    1.8410 H       1  UNL1        0.0476
     47 H          -2.3440    3.2600    3.5780 H       1  UNL1        0.0621
     48 H          -1.7020    3.0500    5.9520 H       1  UNL1        0.0618
     49 H          -1.7790    0.8410    7.0780 H       1  UNL1        0.0618
     50 H          -2.5060   -1.1680    5.8170 H       1  UNL1        0.0618
     51 H          -3.1500   -0.9750    3.4360 H       1  UNL1        0.0621
@<TRIPOS>BOND
     1     1     2    1
     2     1    27    1
     3     1    28    1
     4     1    29    1
     5     2     3    1
     6     2    19    1
     7     2    30    1
     8     3     4    1
     9     3    31    1
    10     3    32    1
    11     4     5   am
    12     4    16    1
    13     5     6    2
    14     5     7    1
    15     7     8   ar
    16     7    15   ar
    17     8     9   ar
    18     8    33    1
    19     9    10   ar
    20     9    34    1
    21    10    11   ar
    22    10    14   ar
    23    11    12   ar
    24    11    35    1
    25    12    13   ar
    26    12    36    1
    27    13    14   ar
    28    13    37    1
    29    14    15   ar
    30    15    38    1
    31    16    17    1
    32    16    18    1
    33    16    39    1
    34    17    40    1
    35    17    41    1
    36    17    42    1
    37    18    19    1
    38    18    43    1
    39    18    44    1
    40    19    20    1
    41    20    21    1
    42    20    45    1
    43    20    46    1
    44    21    22   ar
    45    21    26   ar
    46    22    23   ar
    47    22    47    1
    48    23    24   ar
    49    23    48    1
    50    24    25   ar
    51    24    49    1
    52    25    26   ar
    53    25    50    1
    54    26    51    1
@<TRIPOS>MOLECULE
AD3CC00406477-I00-C00
 37 40 0 0 0
SMALL
GASTEIGER

@<TRIPOS>ATOM
      1 O          -2.4540   -0.9410   -2.7490 O.2     1  UNL1       -0.2651
      2 C          -1.8630   -0.2600   -1.9160 C.ar    1  UNL1        0.2815
      3 N          -2.2130    1.0440   -1.6550 N.ar    1  UNL1       -0.1970
      4 C          -1.5390    1.6850   -0.7620 C.ar    1  UNL1        0.1220
      5 N          -0.4800    1.2180   -0.0110 N.ar    1  UNL1       -0.2198
      6 N           0.1180    2.0580    0.9060 N.ar    1  UNL1       -0.1584
      7 C           1.1100    1.5760    1.5810 C.ar    1  UNL1        0.1224
      8 S           1.9540    2.5420    2.7800 S.3     1  UNL1       -0.0681
      9 C           1.3550    4.1830    2.4360 C.ar    1  UNL1        0.0156
     10 C           0.3510    4.7420    3.2360 C.ar    1  UNL1       -0.0478
     11 C          -0.1180    6.0330    2.9800 C.ar    1  UNL1       -0.0593
     12 C           0.4190    6.7720    1.9270 C.ar    1  UNL1       -0.0433
     13 C           1.4250    6.2190    1.1360 C.ar    1  UNL1        0.0420
     14 CL          2.0910    7.1340   -0.1600 Cl      1  UNL1       -0.0835
     15 C           1.8980    4.9310    1.3870 C.ar    1  UNL1       -0.0296
     16 C           1.6500    0.2070    1.4600 C.ar    1  UNL1       -0.0257
     17 C           1.0480   -0.5840    0.5650 C.ar    1  UNL1       -0.0329
     18 C          -0.0740   -0.1040   -0.2340 C.ar    1  UNL1        0.0802
     19 C          -0.7120   -0.8680   -1.1500 C.ar    1  UNL1        0.0765
     20 C          -0.3540   -2.2720   -1.4530 C.ar    1  UNL1        0.0260
     21 C          -0.9560   -3.3370   -0.7590 C.ar    1  UNL1        0.0503
     22 CL         -2.1010   -3.0660    0.5110 Cl      1  UNL1       -0.0829
     23 C          -0.6330   -4.6640   -1.0620 C.ar    1  UNL1       -0.0427
     24 C           0.2930   -4.9490   -2.0630 C.ar    1  UNL1       -0.0590
     25 C           0.9000   -3.9070   -2.7600 C.ar    1  UNL1       -0.0427
     26 C           0.5800   -2.5780   -2.4600 C.ar    1  UNL1        0.0503
     27 CL          1.3920   -1.3410   -3.3580 Cl      1  UNL1       -0.0829
     28 H          -1.7970    2.7320   -0.5320 H       1  UNL1        0.1049
     29 H          -0.0770    4.1760    4.0600 H       1  UNL1        0.0629
     30 H          -0.9020    6.4590    3.6010 H       1  UNL1        0.0618
     31 H           0.0520    7.7760    1.7290 H       1  UNL1        0.0632
     32 H           2.6830    4.5140    0.7620 H       1  UNL1        0.0643
     33 H           2.4830   -0.1210    2.0670 H       1  UNL1        0.0645
     34 H           1.4080   -1.6000    0.4380 H       1  UNL1        0.0640
     35 H          -1.1070   -5.4820   -0.5230 H       1  UNL1        0.0632
     36 H           0.5380   -5.9810   -2.3020 H       1  UNL1        0.0618
     37 H           1.6200   -4.1350   -3.5430 H       1  UNL1        0.0632
@<TRIPOS>BOND
     1     1     2    2
     2     2     3   ar
     3     2    19   ar
     4     3     4   ar
     5     4     5   ar
     6     4    28    1
     7     5     6   ar
     8     5    18   ar
     9     6     7   ar
    10     7     8    1
    11     7    16   ar
    12     8     9    1
    13     9    10   ar
    14     9    15   ar
    15    10    11   ar
    16    10    29    1
    17    11    12   ar
    18    11    30    1
    19    12    13   ar
    20    12    31    1
    21    13    14    1
    22    13    15   ar
    23    15    32    1
    24    16    17   ar
    25    16    33    1
    26    17    18   ar
    27    17    34    1
    28    18    19   ar
    29    19    20    1
    30    20    21   ar
    31    20    26   ar
    32    21    22    1
    33    21    23   ar
    34    23    24   ar
    35    23    35    1
    36    24    25   ar
    37    24    36    1
    38    25    26   ar
    39    25    37    1
    40    26    27    1
@<TRIPOS>MOLECULE
AD3CC00406848-I00-C00
 38 41 0 0 0
SMALL
GASTEIGER

@<TRIPOS>ATOM
      1 O          -3.7850    2.2090    0.1570 O.2     1  UNL1       -0.2651
      2 C          -2.8280    1.7280    0.7570 C.ar    1  UNL1        0.2815
      3 N          -2.0620    2.4690    1.6260 N.ar    1  UNL1       -0.1970
      4 C          -1.0800    1.8810    2.2190 C.ar    1  UNL1        0.1220
      5 N          -0.6850    0.5640    2.0930 N.ar    1  UNL1       -0.2198
      6 N           0.4010    0.1100    2.8180 N.ar    1  UNL1       -0.1584
      7 C           0.7270   -1.1290    2.6430 C.ar    1  UNL1        0.1225
      8 S           2.0980   -1.7620    3.5230 S.3     1  UNL1       -0.0645
      9 C           3.4270   -1.2840    2.4300 C.ar    1  UNL1        0.0556
     10 C           4.1670   -2.2950    1.8030 C.ar    1  UNL1       -0.0444
     11 C           5.2280   -1.9750    0.9520 C.ar    1  UNL1       -0.0605
     12 C           5.5640   -0.6420    0.7260 C.ar    1  UNL1       -0.0582
     13 C           4.8430    0.3730    1.3530 C.ar    1  UNL1       -0.0191
     14 C           3.7830    0.0520    2.1980 C.ar    1  UNL1        0.1306
     15 O           3.1340    1.1070    2.7790 O.3     1  UNL1       -0.5057
     16 C           0.0530   -2.1010    1.7660 C.ar    1  UNL1       -0.0257
     17 C          -0.9960   -1.6300    1.0810 C.ar    1  UNL1       -0.0329
     18 C          -1.4240   -0.2400    1.2140 C.ar    1  UNL1        0.0802
     19 C          -2.4760    0.2760    0.5370 C.ar    1  UNL1        0.0765
     20 C          -3.3130   -0.4960   -0.4090 C.ar    1  UNL1        0.0260
     21 C          -4.4630   -1.1760    0.0320 C.ar    1  UNL1        0.0503
     22 CL         -4.9300   -1.1920    1.6990 Cl      1  UNL1       -0.0829
     23 C          -5.2650   -1.8850   -0.8680 C.ar    1  UNL1       -0.0427
     24 C          -4.9340   -1.9250   -2.2210 C.ar    1  UNL1       -0.0590
     25 C          -3.7990   -1.2580   -2.6750 C.ar    1  UNL1       -0.0427
     26 C          -2.9940   -0.5480   -1.7780 C.ar    1  UNL1        0.0503
     27 CL         -1.5890    0.2370   -2.4180 Cl      1  UNL1       -0.0829
     28 H          -0.4480    2.4510    2.9210 H       1  UNL1        0.1049
     29 H           3.9310   -3.3430    1.9760 H       1  UNL1        0.0630
     30 H           5.7970   -2.7670    0.4700 H       1  UNL1        0.0618
     31 H           6.3920   -0.3900    0.0670 H       1  UNL1        0.0619
     32 H           5.1060    1.4140    1.1860 H       1  UNL1        0.0654
     33 H           2.3420    0.7680    3.2370 H       1  UNL1        0.2922
     34 H           0.3970   -3.1230    1.6920 H       1  UNL1        0.0645
     35 H          -1.5310   -2.3010    0.4170 H       1  UNL1        0.0640
     36 H          -6.1560   -2.4050   -0.5190 H       1  UNL1        0.0632
     37 H          -5.5630   -2.4710   -2.9210 H       1  UNL1        0.0618
     38 H          -3.5470   -1.2900   -3.7330 H       1  UNL1        0.0632
@<TRIPOS>BOND
     1     1     2    2
     2     2     3   ar
     3     2    19   ar
     4     3     4   ar
     5     4     5   ar
     6     4    28    1
     7     5     6   ar
     8     5    18   ar
     9     6     7   ar
    10     7     8    1
    11     7    16   ar
    12     8     9    1
    13     9    10   ar
    14     9    14   ar
    15    10    11   ar
    16    10    29    1
    17    11    12   ar
    18    11    30    1
    19    12    13   ar
    20    12    31    1
    21    13    14   ar
    22    13    32    1
    23    14    15    1
    24    15    33    1
    25    16    17   ar
    26    16    34    1
    27    17    18   ar
    28    17    35    1
    29    18    19   ar
    30    19    20    1
    31    20    21   ar
    32    20    26   ar
    33    21    22    1
    34    21    23   ar
    35    23    24   ar
    36    23    36    1
    37    24    25   ar
    38    24    37    1
    39    25    26   ar
    40    25    38    1
    41    26    27    1
@<TRIPOS>MOLECULE
AD3CC00422588-I00-C00
 31 34 0 0 0
SMALL
GASTEIGER

@<TRIPOS>ATOM
      1 C           2.1560    3.0480   -2.0610 C.ar    1  UNL1       -0.0541
      2 C           0.7820    3.1420   -2.0810 C.ar    1  UNL1       -0.0237
      3 S           0.0360    1.6040   -2.0400 S.2     1  UNL1       -0.0951
      4 C           1.5390    0.8000   -1.9930 C.ar    1  UNL1        0.0399
      5 C           1.7400   -0.7650   -1.9380 C.ar    1  UNL1        0.1067
      6 N           2.9760   -1.2910   -1.9140 N.ar    1  UNL1       -0.1728
      7 N           2.7700   -2.6160   -1.8800 N.ar    1  UNL1       -0.2835
      8 C           1.4550   -2.9650   -1.8770 C.ar    1  UNL1        0.0307
      9 C           0.7480   -1.7820   -1.9080 C.ar    1  UNL1        0.0284
     10 C          -0.7000   -1.7420   -1.9090 C.ar    1  UNL1       -0.0037
     11 C          -1.3560   -1.8760   -3.1330 C.ar    1  UNL1       -0.0352
     12 C          -2.7340   -1.8400   -3.1350 C.ar    1  UNL1        0.0288
     13 N          -3.4820   -1.6870   -2.0250 N.ar    1  UNL1       -0.2549
     14 C          -2.8530   -1.5540   -0.8440 C.ar    1  UNL1        0.0715
     15 C          -3.6270   -1.3900    0.2970 C.ar    1  UNL1       -0.0357
     16 C          -3.0570   -1.2430    1.5640 C.ar    1  UNL1       -0.0597
     17 C          -1.6770   -1.2610    1.7030 C.ar    1  UNL1       -0.0611
     18 C          -0.8770   -1.4250    0.5740 C.ar    1  UNL1       -0.0520
     19 C          -1.4470   -1.5740   -0.7160 C.ar    1  UNL1        0.0082
     20 C           2.5930    1.6920   -2.0110 C.ar    1  UNL1       -0.0454
     21 H           2.8150    3.9060   -2.0820 H       1  UNL1        0.0623
     22 H           0.1790    4.0390   -2.1170 H       1  UNL1        0.0693
     23 H           3.5810   -3.2260   -1.8590 H       1  UNL1        0.1882
     24 H           1.1430   -4.0000   -1.8470 H       1  UNL1        0.0830
     25 H          -0.8100   -1.9990   -4.0610 H       1  UNL1        0.0639
     26 H          -3.2950   -1.9360   -4.0610 H       1  UNL1        0.0830
     27 H          -4.7100   -1.3730    0.1960 H       1  UNL1        0.0639
     28 H          -3.6950   -1.1140    2.4340 H       1  UNL1        0.0618
     29 H          -1.2220   -1.1440    2.6830 H       1  UNL1        0.0618
     30 H           0.2030   -1.4320    0.7050 H       1  UNL1        0.0624
     31 H           3.6310    1.3820   -1.9890 H       1  UNL1        0.0629
@<TRIPOS>BOND
     1     1     2   ar
     2     1    20   ar
     3     1    21    1
     4     2     3   ar
     5     2    22    1
     6     3     4   ar
     7     4     5    1
     8     4    20   ar
     9     5     6   ar
    10     5     9   ar
    11     6     7   ar
    12     7     8   ar
    13     7    23    1
    14     8     9   ar
    15     8    24    1
    16     9    10    1
    17    10    11   ar
    18    10    19   ar
    19    11    12   ar
    20    11    25    1
    21    12    13   ar
    22    12    26    1
    23    13    14   ar
    24    14    15   ar
    25    14    19   ar
    26    15    16   ar
    27    15    27    1
    28    16    17   ar
    29    16    28    1
    30    17    18   ar
    31    17    29    1
    32    18    19   ar
    33    18    30    1
    34    20    31    1
@<TRIPOS>MOLECULE
AD3CC00422631-I00-C00
 33 36 0 0 0
SMALL
GASTEIGER

@<TRIPOS>ATOM
      1 BR          0.6590    5.5650    3.7560 Br      1  UNL1       -0.0287
      2 C           0.7300    3.9440    2.7750 C.ar    1  UNL1        0.1070
      3 C           1.1000    2.7810    3.4300 C.ar    1  UNL1       -0.0292
      4 C           1.1420    1.6020    2.6950 C.ar    1  UNL1       -0.0572
      5 C           0.8180    1.6280    1.3400 C.ar    1  UNL1       -0.0341
      6 C           0.4640    2.8380    0.7590 C.ar    1  UNL1        0.0904
      7 C           0.0980    3.0050   -0.6430 C.ar    1  UNL1        0.0916
      8 N          -0.4120    4.2100   -1.0750 N.ar    1  UNL1       -0.2749
      9 N          -0.7340    4.2510   -2.3780 N.ar    1  UNL1       -0.1811
     10 C          -0.3970    3.0390   -2.8150 C.ar    1  UNL1        0.0575
     11 C           0.1240    2.2200   -1.7870 C.ar    1  UNL1        0.0293
     12 C           0.6140    0.8610   -1.8900 C.ar    1  UNL1       -0.0037
     13 C           1.9830    0.6750   -2.0840 C.ar    1  UNL1       -0.0352
     14 C           2.4530   -0.6160   -2.1800 C.ar    1  UNL1        0.0288
     15 N           1.6640   -1.7070   -2.0970 N.ar    1  UNL1       -0.2549
     16 C           0.3430   -1.5310   -1.9220 C.ar    1  UNL1        0.0715
     17 C          -0.4660   -2.6570   -1.8440 C.ar    1  UNL1       -0.0357
     18 C          -1.8480   -2.5650   -1.6580 C.ar    1  UNL1       -0.0597
     19 C          -2.4440   -1.3180   -1.5440 C.ar    1  UNL1       -0.0611
     20 C          -1.6550   -0.1710   -1.6190 C.ar    1  UNL1       -0.0520
     21 C          -0.2530   -0.2570   -1.8110 C.ar    1  UNL1        0.0082
     22 N           0.4100    3.9960    1.4630 N.ar    1  UNL1       -0.2384
     23 H           1.3480    2.7810    4.4860 H       1  UNL1        0.0644
     24 H           1.4220    0.6670    3.1720 H       1  UNL1        0.0619
     25 H           0.8420    0.7030    0.7780 H       1  UNL1        0.0639
     26 H          -0.5560    5.0330   -0.4980 H       1  UNL1        0.1890
     27 H          -0.5410    2.7970   -3.8610 H       1  UNL1        0.0854
     28 H           2.6680    1.5140   -2.1580 H       1  UNL1        0.0639
     29 H           3.5090   -0.8200   -2.3310 H       1  UNL1        0.0830
     30 H          -0.0060   -3.6390   -1.9320 H       1  UNL1        0.0639
     31 H          -2.4490   -3.4690   -1.6030 H       1  UNL1        0.0618
     32 H          -3.5180   -1.2340   -1.4000 H       1  UNL1        0.0618
     33 H          -2.1450    0.7970   -1.5270 H       1  UNL1        0.0624
@<TRIPOS>BOND
     1     1     2    1
     2     2     3   ar
     3     2    22   ar
     4     3     4   ar
     5     3    23    1
     6     4     5   ar
     7     4    24    1
     8     5     6   ar
     9     5    25    1
    10     6     7    1
    11     6    22   ar
    12     7     8   ar
    13     7    11   ar
    14     8     9   ar
    15     8    26    1
    16     9    10   ar
    17    10    11   ar
    18    10    27    1
    19    11    12    1
    20    12    13   ar
    21    12    21   ar
    22    13    14   ar
    23    13    28    1
    24    14    15   ar
    25    14    29    1
    26    15    16   ar
    27    16    17   ar
    28    16    21   ar
    29    17    18   ar
    30    17    30    1
    31    18    19   ar
    32    18    31    1
    33    19    20   ar
    34    19    32    1
    35    20    21   ar
    36    20    33    1
@<TRIPOS>MOLECULE
AD3CC00423514-I00-C00
 39 42 0 0 0
SMALL
GASTEIGER

@<TRIPOS>ATOM
      1 O           3.2530    0.9470   -3.5150 O.2     1  UNL1       -0.2519
      2 C           2.6830    0.4920   -2.5230 C.2     1  UNL1        0.3113
      3 N           3.3980   -0.2790   -1.6510 N.am    1  UNL1       -0.2930
      4 C           2.9950   -0.4650   -0.2810 C.3     1  UNL1        0.0573
      5 C           1.5050   -0.5170   -0.1190 C.ar    1  UNL1        0.0813
      6 N           1.0180   -1.1040    1.0060 N.ar    1  UNL1       -0.2416
      7 C          -0.3170   -1.0810    1.1990 C.ar    1  UNL1        0.1020
      8 S          -0.9890   -1.8570    2.6590 S.3     1  UNL1       -0.0698
      9 C           0.4280   -1.9430    3.7370 C.ar    1  UNL1        0.0155
     10 C           0.9880   -3.1880    4.0470 C.ar    1  UNL1       -0.0479
     11 C           2.0880   -3.2750    4.9030 C.ar    1  UNL1       -0.0593
     12 C           2.6310   -2.1170    5.4580 C.ar    1  UNL1       -0.0433
     13 C           2.0680   -0.8780    5.1560 C.ar    1  UNL1        0.0420
     14 CL          2.7390    0.5510    5.8420 Cl      1  UNL1       -0.0835
     15 C           0.9680   -0.7850    4.3050 C.ar    1  UNL1       -0.0296
     16 C          -1.1860   -0.4830    0.2960 C.ar    1  UNL1       -0.0277
     17 C          -0.6660    0.1220   -0.8510 C.ar    1  UNL1       -0.0356
     18 C           0.7130    0.1140   -1.0780 C.ar    1  UNL1        0.0657
     19 N           1.3400    0.6900   -2.2200 N.am    1  UNL1       -0.2198
     20 C           0.5450    1.4350   -3.1360 C.ar    1  UNL1        0.0794
     21 C           0.1200    0.8640   -4.3500 C.ar    1  UNL1        0.0641
     22 CL          0.4350   -0.7910   -4.7440 Cl      1  UNL1       -0.0816
     23 C          -0.6270    1.6150   -5.2640 C.ar    1  UNL1       -0.0415
     24 C          -0.9530    2.9410   -4.9830 C.ar    1  UNL1       -0.0589
     25 C          -0.5320    3.5210   -3.7870 C.ar    1  UNL1       -0.0415
     26 C           0.2160    2.7770   -2.8690 C.ar    1  UNL1        0.0641
     27 CL          0.7280    3.5740   -1.4200 Cl      1  UNL1       -0.0816
     28 H           4.3830   -0.3210   -1.8750 H       1  UNL1        0.1507
     29 H           3.3930    0.3740    0.3000 H       1  UNL1        0.0528
     30 H           3.4550   -1.3910    0.0760 H       1  UNL1        0.0528
     31 H           0.5750   -4.0980    3.6170 H       1  UNL1        0.0629
     32 H           2.5210   -4.2450    5.1340 H       1  UNL1        0.0618
     33 H           3.4880   -2.1860    6.1220 H       1  UNL1        0.0632
     34 H           0.5400    0.1880    4.0780 H       1  UNL1        0.0643
     35 H          -2.2580   -0.4820    0.4700 H       1  UNL1        0.0645
     36 H          -1.3620    0.5770   -1.5490 H       1  UNL1        0.0638
     37 H          -0.9580    1.1690   -6.1990 H       1  UNL1        0.0633
     38 H          -1.5290    3.5240   -5.6980 H       1  UNL1        0.0618
     39 H          -0.7800    4.5600   -3.5790 H       1  UNL1        0.0633
@<TRIPOS>BOND
     1     1     2    2
     2     2     3   am
     3     2    19   am
     4     3     4    1
     5     3    28    1
     6     4     5    1
     7     4    29    1
     8     4    30    1
     9     5     6   ar
    10     5    18   ar
    11     6     7   ar
    12     7     8    1
    13     7    16   ar
    14     8     9    1
    15     9    10   ar
    16     9    15   ar
    17    10    11   ar
    18    10    31    1
    19    11    12   ar
    20    11    32    1
    21    12    13   ar
    22    12    33    1
    23    13    14    1
    24    13    15   ar
    25    15    34    1
    26    16    17   ar
    27    16    35    1
    28    17    18   ar
    29    17    36    1
    30    18    19    1
    31    19    20    1
    32    20    21   ar
    33    20    26   ar
    34    21    22    1
    35    21    23   ar
    36    23    24   ar
    37    23    37    1
    38    24    25   ar
    39    24    38    1
    40    25    26   ar
    41    25    39    1
    42    26    27    1
@<TRIPOS>MOLECULE
AD3CC00423515-I00-C00
 42 45 0 0 0
SMALL
GASTEIGER

@<TRIPOS>ATOM
      1 O           0.6820    2.3980   -3.5200 O.2     1  UNL1       -0.2519
      2 C           0.6860    1.6810   -2.5200 C.2     1  UNL1        0.3113
      3 N           0.6200    0.3260   -2.6840 N.am    1  UNL1       -0.2930
      4 C           0.1610   -0.5520   -1.6390 C.3     1  UNL1        0.0573
      5 C           0.5670   -0.0860   -0.2730 C.ar    1  UNL1        0.0813
      6 N           0.5880   -1.0100    0.7230 N.ar    1  UNL1       -0.2416
      7 C           0.8690   -0.5790    1.9710 C.ar    1  UNL1        0.1020
      8 S           0.9090   -1.7710    3.3010 S.3     1  UNL1       -0.0693
      9 C           0.0290   -3.1590    2.5890 C.ar    1  UNL1        0.0258
     10 C           0.8010   -4.1700    1.9920 C.ar    1  UNL1       -0.0474
     11 C           0.1980   -5.2920    1.4260 C.ar    1  UNL1       -0.0607
     12 C          -1.1850   -5.4230    1.4540 C.ar    1  UNL1       -0.0612
     13 C          -1.9640   -4.4310    2.0500 C.ar    1  UNL1       -0.0490
     14 C          -1.3720   -3.2890    2.6290 C.ar    1  UNL1        0.0685
     15 C          -2.2540   -2.2490    3.2730 C.3     1  UNL1        0.4184
     16 F          -3.5820   -2.5670    3.2200 F       1  UNL1       -0.1659
     17 F          -2.1620   -1.0200    2.6930 F       1  UNL1       -0.1659
     18 F          -1.9870   -2.0660    4.5970 F       1  UNL1       -0.1659
     19 C           1.1300    0.7550    2.2560 C.ar    1  UNL1       -0.0277
     20 C           1.0980    1.6900    1.2190 C.ar    1  UNL1       -0.0356
     21 C           0.8110    1.2750   -0.0840 C.ar    1  UNL1        0.0657
     22 N           0.7710    2.1450   -1.2110 N.am    1  UNL1       -0.2198
     23 C           0.9060    3.5460   -1.0010 C.ar    1  UNL1        0.0794
     24 C           2.1330    4.1940   -1.2310 C.ar    1  UNL1        0.0641
     25 CL          3.5620    3.3200   -1.6690 Cl      1  UNL1       -0.0816
     26 C           2.2490    5.5770   -1.0580 C.ar    1  UNL1       -0.0415
     27 C           1.1430    6.3300   -0.6630 C.ar    1  UNL1       -0.0589
     28 C          -0.0810    5.7020   -0.4400 C.ar    1  UNL1       -0.0415
     29 C          -0.2040    4.3190   -0.6110 C.ar    1  UNL1        0.0641
     30 CL         -1.7620    3.6140   -0.3450 Cl      1  UNL1       -0.0816
     31 H           0.4760    0.0500   -3.6460 H       1  UNL1        0.1507
     32 H           0.5640   -1.5480   -1.8430 H       1  UNL1        0.0528
     33 H          -0.9320   -0.5940   -1.6960 H       1  UNL1        0.0528
     34 H           1.8850   -4.0820    1.9560 H       1  UNL1        0.0629
     35 H           0.8100   -6.0620    0.9620 H       1  UNL1        0.0618
     36 H          -1.6590   -6.2960    1.0130 H       1  UNL1        0.0618
     37 H          -3.0460   -4.5540    2.0650 H       1  UNL1        0.0623
     38 H           1.3540    1.0760    3.2680 H       1  UNL1        0.0645
     39 H           1.3110    2.7260    1.4600 H       1  UNL1        0.0638
     40 H           3.2010    6.0740   -1.2320 H       1  UNL1        0.0633
     41 H           1.2350    7.4060   -0.5360 H       1  UNL1        0.0618
     42 H          -0.9420    6.2970   -0.1430 H       1  UNL1        0.0633
@<TRIPOS>BOND
     1     1     2    2
     2     2     3   am
     3     2    22   am
     4     3     4    1
     5     3    31    1
     6     4     5    1
     7     4    32    1
     8     4    33    1
     9     5     6   ar
    10     5    21   ar
    11     6     7   ar
    12     7     8    1
    13     7    19   ar
    14     8     9    1
    15     9    10   ar
    16     9    14   ar
    17    10    11   ar
    18    10    34    1
    19    11    12   ar
    20    11    35    1
    21    12    13   ar
    22    12    36    1
    23    13    14   ar
    24    13    37    1
    25    14    15    1
    26    15    16    1
    27    15    17    1
    28    15    18    1
    29    19    20   ar
    30    19    38    1
    31    20    21   ar
    32    20    39    1
    33    21    22    1
    34    22    23    1
    35    23    24   ar
    36    23    29   ar
    37    24    25    1
    38    24    26   ar
    39    26    27   ar
    40    26    40    1
    41    27    28   ar
    42    27    41    1
    43    28    29   ar
    44    28    42    1
    45    29    30    1
@<TRIPOS>MOLECULE
AD3CC00423563-I00-C00
 45 48 0 0 0
SMALL
GASTEIGER

@<TRIPOS>ATOM
      1 C          -0.0060   -2.3740    3.3890 C.3     1  UNL1       -0.0386
      2 C           1.2090   -1.5040    3.5740 C.ar    1  UNL1       -0.0364
      3 C           2.4480   -2.1310    3.7880 C.ar    1  UNL1       -0.0578
      4 C           3.6060   -1.3800    3.9660 C.ar    1  UNL1       -0.0612
      5 C           3.5450    0.0090    3.9350 C.ar    1  UNL1       -0.0578
      6 C           2.3250    0.6710    3.7210 C.ar    1  UNL1       -0.0364
      7 C           2.3260    2.1770    3.6920 C.3     1  UNL1       -0.0386
      8 C           1.1460   -0.0900    3.5280 C.ar    1  UNL1        0.0200
      9 S          -0.4310    0.7420    3.2690 S.3     1  UNL1       -0.0694
     10 C          -0.5720    0.7100    1.4910 C.ar    1  UNL1        0.1020
     11 C          -1.8360    0.6950    0.9160 C.ar    1  UNL1       -0.0277
     12 C          -1.9500    0.6700   -0.4760 C.ar    1  UNL1       -0.0356
     13 C          -0.7990    0.6660   -1.2690 C.ar    1  UNL1        0.0657
     14 C           0.4260    0.6940   -0.6020 C.ar    1  UNL1        0.0813
     15 N           0.5560    0.7140    0.7500 N.ar    1  UNL1       -0.2416
     16 C           1.6820    0.5990   -1.4140 C.3     1  UNL1        0.0573
     17 N           1.5030    1.0500   -2.7700 N.am    1  UNL1       -0.2930
     18 C           0.3390    0.8510   -3.4570 C.2     1  UNL1        0.3113
     19 O           0.3670    0.8730   -4.6860 O.2     1  UNL1       -0.2519
     20 N          -0.8070    0.6510   -2.6930 N.am    1  UNL1       -0.2198
     21 C          -2.0510    0.5030   -3.3700 C.ar    1  UNL1        0.0794
     22 C          -2.6270   -0.7700   -3.5340 C.ar    1  UNL1        0.0641
     23 CL         -1.8820   -2.2000   -2.9050 Cl      1  UNL1       -0.0816
     24 C          -3.8300   -0.9210   -4.2320 C.ar    1  UNL1       -0.0415
     25 C          -4.4660    0.1910   -4.7820 C.ar    1  UNL1       -0.0589
     26 C          -3.9010    1.4580   -4.6340 C.ar    1  UNL1       -0.0415
     27 C          -2.6990    1.6160   -3.9370 C.ar    1  UNL1        0.0641
     28 CL         -2.0910    3.2250   -3.7470 Cl      1  UNL1       -0.0816
     29 H          -0.4080   -2.2610    2.3770 H       1  UNL1        0.0278
     30 H           0.2360   -3.4340    3.5260 H       1  UNL1        0.0278
     31 H          -0.7760   -2.1250    4.1260 H       1  UNL1        0.0278
     32 H           2.5170   -3.2160    3.8170 H       1  UNL1        0.0621
     33 H           4.5570   -1.8790    4.1320 H       1  UNL1        0.0618
     34 H           4.4610    0.5780    4.0780 H       1  UNL1        0.0621
     35 H           3.3260    2.5820    3.8830 H       1  UNL1        0.0278
     36 H           2.0110    2.5440    2.7100 H       1  UNL1        0.0278
     37 H           1.6650    2.5770    4.4680 H       1  UNL1        0.0278
     38 H          -2.7290    0.7020    1.5330 H       1  UNL1        0.0645
     39 H          -2.9460    0.6660   -0.9070 H       1  UNL1        0.0638
     40 H           2.4780    1.2030   -0.9670 H       1  UNL1        0.0528
     41 H           2.0100   -0.4460   -1.4510 H       1  UNL1        0.0528
     42 H           2.3140    1.1080   -3.3710 H       1  UNL1        0.1507
     43 H          -4.2710   -1.9070   -4.3610 H       1  UNL1        0.0633
     44 H          -5.3970    0.0710   -5.3300 H       1  UNL1        0.0618
     45 H          -4.4020    2.3210   -5.0670 H       1  UNL1        0.0633
@<TRIPOS>BOND
     1     1     2    1
     2     1    29    1
     3     1    30    1
     4     1    31    1
     5     2     3   ar
     6     2     8   ar
     7     3     4   ar
     8     3    32    1
     9     4     5   ar
    10     4    33    1
    11     5     6   ar
    12     5    34    1
    13     6     7    1
    14     6     8   ar
    15     7    35    1
    16     7    36    1
    17     7    37    1
    18     8     9    1
    19     9    10    1
    20    10    11   ar
    21    10    15   ar
    22    11    12   ar
    23    11    38    1
    24    12    13   ar
    25    12    39    1
    26    13    14   ar
    27    13    20    1
    28    14    15   ar
    29    14    16    1
    30    16    17    1
    31    16    40    1
    32    16    41    1
    33    17    18   am
    34    17    42    1
    35    18    19    2
    36    18    20   am
    37    20    21    1
    38    21    22   ar
    39    21    27   ar
    40    22    23    1
    41    22    24   ar
    42    24    25   ar
    43    24    43    1
    44    25    26   ar
    45    25    44    1
    46    26    27   ar
    47    26    45    1
    48    27    28    1
@<TRIPOS>MOLECULE
AD3CC00423607-I00-C00
 41 44 0 0 0
SMALL
GASTEIGER

@<TRIPOS>ATOM
      1 N          -1.1700    3.6530   -2.3450 N.pl3   1  UNL1       -0.3570
      2 C          -2.3540    2.9180   -2.5520 C.ar    1  UNL1        0.0412
      3 C          -3.5810    3.5320   -2.2750 C.ar    1  UNL1       -0.0047
      4 C          -4.7740    2.8890   -2.5880 C.ar    1  UNL1        0.1252
      5 F          -5.9390    3.4820   -2.2930 F       1  UNL1       -0.2054
      6 C          -4.7800    1.6510   -3.2140 C.ar    1  UNL1       -0.0253
      7 C          -3.5680    1.0480   -3.5470 C.ar    1  UNL1       -0.0435
      8 C          -2.3520    1.6770   -3.2310 C.ar    1  UNL1        0.0349
      9 S          -0.8390    0.8510   -3.7300 S.3     1  UNL1       -0.0681
     10 C          -0.1460    0.4630   -2.1390 C.ar    1  UNL1        0.1021
     11 C          -0.4190   -0.7520   -1.5300 C.ar    1  UNL1       -0.0277
     12 C           0.1450   -1.0230   -0.2820 C.ar    1  UNL1       -0.0356
     13 C           0.9720   -0.0770    0.3300 C.ar    1  UNL1        0.0657
     14 C           1.1940    1.1140   -0.3660 C.ar    1  UNL1        0.0813
     15 N           0.6560    1.4000   -1.5820 N.ar    1  UNL1       -0.2416
     16 C           2.1620    2.1020    0.2150 C.3     1  UNL1        0.0573
     17 N           2.2760    1.9890    1.6450 N.am    1  UNL1       -0.2930
     18 C           2.2250    0.7810    2.2830 C.2     1  UNL1        0.3113
     19 O           2.7280    0.6810    3.4010 O.2     1  UNL1       -0.2519
     20 N           1.5790   -0.2500    1.6070 N.am    1  UNL1       -0.2198
     21 C           1.4430   -1.5050    2.2660 C.ar    1  UNL1        0.0794
     22 C           0.4970   -1.6790    3.2940 C.ar    1  UNL1        0.0641
     23 CL         -0.6190   -0.4310    3.7320 Cl      1  UNL1       -0.0816
     24 C           0.3960   -2.9020    3.9640 C.ar    1  UNL1       -0.0415
     25 C           1.2380   -3.9610    3.6240 C.ar    1  UNL1       -0.0589
     26 C           2.1840   -3.7990    2.6120 C.ar    1  UNL1       -0.0415
     27 C           2.2910   -2.5780    1.9390 C.ar    1  UNL1        0.0641
     28 CL          3.5060   -2.4430    0.7140 Cl      1  UNL1       -0.0816
     29 H          -0.3480    3.0430   -2.2840 H       1  UNL1        0.1424
     30 H          -1.2150    4.2960   -1.5610 H       1  UNL1        0.1424
     31 H          -3.6210    4.5160   -1.8190 H       1  UNL1        0.0665
     32 H          -5.7240    1.1750   -3.4570 H       1  UNL1        0.0646
     33 H          -3.5780    0.0920   -4.0650 H       1  UNL1        0.0630
     34 H          -1.0640   -1.4840   -2.0070 H       1  UNL1        0.0645
     35 H          -0.0890   -1.9730    0.1890 H       1  UNL1        0.0638
     36 H           1.8500    3.1270   -0.0110 H       1  UNL1        0.0528
     37 H           3.1550    1.9310   -0.2150 H       1  UNL1        0.0528
     38 H           2.8310    2.6730    2.1420 H       1  UNL1        0.1507
     39 H          -0.3390   -3.0350    4.7550 H       1  UNL1        0.0633
     40 H           1.1610   -4.9090    4.1510 H       1  UNL1        0.0618
     41 H           2.8440   -4.6260    2.3600 H       1  UNL1        0.0633
@<TRIPOS>BOND
     1     1     2    1
     2     1    29    1
     3     1    30    1
     4     2     3   ar
     5     2     8   ar
     6     3     4   ar
     7     3    31    1
     8     4     5    1
     9     4     6   ar
    10     6     7   ar
    11     6    32    1
    12     7     8   ar
    13     7    33    1
    14     8     9    1
    15     9    10    1
    16    10    11   ar
    17    10    15   ar
    18    11    12   ar
    19    11    34    1
    20    12    13   ar
    21    12    35    1
    22    13    14   ar
    23    13    20    1
    24    14    15   ar
    25    14    16    1
    26    16    17    1
    27    16    36    1
    28    16    37    1
    29    17    18   am
    30    17    38    1
    31    18    19    2
    32    18    20   am
    33    20    21    1
    34    21    22   ar
    35    21    27   ar
    36    22    23    1
    37    22    24   ar
    38    24    25   ar
    39    24    39    1
    40    25    26   ar
    41    25    40    1
    42    26    27   ar
    43    26    41    1
    44    27    28    1
@<TRIPOS>MOLECULE
AD3CC00440629-I01-C00
 47 50 0 0 0
SMALL
GASTEIGER

@<TRIPOS>ATOM
      1 C           0.6320    1.0280    2.2920 C.3     1  UNL1        0.1025
      2 S           1.6450    0.2940    3.6010 S.3     1  UNL1       -0.0158
      3 O           0.9340    0.6770    5.0510 O.co2   1  UNL1       -0.6134
      4 C           1.2540   -1.4380    3.2580 C.ar    1  UNL1        0.1548
      5 C           0.5260   -2.2010    4.1740 C.ar    1  UNL1       -0.0068
      6 C           0.2300   -3.5360    3.8980 C.ar    1  UNL1       -0.0568
      7 C           0.6630   -4.1180    2.7060 C.ar    1  UNL1       -0.0575
      8 C           1.4050   -3.3720    1.7800 C.ar    1  UNL1       -0.0324
      9 C           1.8620   -3.9890    0.4800 C.3     1  UNL1        0.0263
     10 S           0.5310   -4.1140   -0.7500 S.3     1  UNL1       -0.0832
     11 C           0.4180   -2.4890   -1.3060 C.ar    1  UNL1        0.1676
     12 N           1.2630   -1.5080   -1.1230 N.ar    1  UNL1       -0.2214
     13 C           0.6980   -0.4230   -1.7630 C.ar    1  UNL1        0.0976
     14 C           1.3430    0.8810   -1.7520 C.ar    1  UNL1        0.0026
     15 C           2.7440    0.9490   -1.8070 C.ar    1  UNL1       -0.0498
     16 C           3.3970    2.1830   -1.7760 C.ar    1  UNL1       -0.0258
     17 C           2.6490    3.3500   -1.6810 C.ar    1  UNL1        0.1234
     18 F           3.2740    4.5330   -1.6500 F       1  UNL1       -0.2055
     19 C           1.2620    3.3060   -1.6110 C.ar    1  UNL1       -0.0258
     20 C           0.6080    2.0710   -1.6410 C.ar    1  UNL1       -0.0498
     21 C          -0.5000   -0.7740   -2.3750 C.ar    1  UNL1        0.0748
     22 C          -1.4470   -0.0680   -3.2300 C.ar    1  UNL1        0.0033
     23 C          -1.0060    0.6170   -4.3630 C.ar    1  UNL1       -0.0344
     24 C          -1.9420    1.2710   -5.1450 C.ar    1  UNL1        0.0282
     25 N          -3.2650    1.2840   -4.8770 N.ar    1  UNL1       -0.2632
     26 C          -3.6700    0.6150   -3.7780 C.ar    1  UNL1        0.0282
     27 C          -2.8110   -0.0700   -2.9340 C.ar    1  UNL1       -0.0344
     28 N          -0.6530   -2.1060   -2.0520 N.ar    1  UNL1       -0.3324
     29 C           1.7010   -2.0310    2.0710 C.ar    1  UNL1       -0.0028
     30 H           0.6440    2.1140    2.4140 H       1  UNL1        0.0808
     31 H          -0.3970    0.6680    2.3650 H       1  UNL1        0.0808
     32 H           1.0520    0.7750    1.3170 H       1  UNL1        0.0808
     33 H           0.1820   -1.7590    5.1070 H       1  UNL1        0.0667
     34 H          -0.3410   -4.1210    4.6150 H       1  UNL1        0.0619
     35 H           0.4160   -5.1580    2.5040 H       1  UNL1        0.0621
     36 H           2.2270   -5.0030    0.6830 H       1  UNL1        0.0429
     37 H           2.7180   -3.4440    0.0630 H       1  UNL1        0.0429
     38 H           3.3320    0.0350   -1.8750 H       1  UNL1        0.0625
     39 H           4.4800    2.2390   -1.8230 H       1  UNL1        0.0646
     40 H           0.6990    4.2300   -1.5280 H       1  UNL1        0.0646
     41 H          -0.4760    2.0540   -1.5630 H       1  UNL1        0.0625
     42 H           0.0430    0.6430   -4.6400 H       1  UNL1        0.0639
     43 H          -1.6440    1.8170   -6.0360 H       1  UNL1        0.0830
     44 H          -4.7380    0.6490   -3.5840 H       1  UNL1        0.0830
     45 H          -3.2060   -0.5740   -2.0590 H       1  UNL1        0.0639
     46 H          -1.4040   -2.7140   -2.3420 H       1  UNL1        0.1679
     47 H           2.2770   -1.4470    1.3550 H       1  UNL1        0.0670
@<TRIPOS>UNITY_ATOM_ATTR
2 1
charge 1
3 1
charge -1
@<TRIPOS>BOND
     1     1     2    1
     2     1    30    1
     3     1    31    1
     4     1    32    1
     5     2     3    1
     6     2     4    1
     7     4     5   ar
     8     4    29   ar
     9     5     6   ar
    10     5    33    1
    11     6     7   ar
    12     6    34    1
    13     7     8   ar
    14     7    35    1
    15     8     9    1
    16     8    29   ar
    17     9    10    1
    18     9    36    1
    19     9    37    1
    20    10    11    1
    21    11    12   ar
    22    11    28   ar
    23    12    13   ar
    24    13    14    1
    25    13    21   ar
    26    14    15   ar
    27    14    20   ar
    28    15    16   ar
    29    15    38    1
    30    16    17   ar
    31    16    39    1
    32    17    18    1
    33    17    19   ar
    34    19    20   ar
    35    19    40    1
    36    20    41    1
    37    21    22    1
    38    21    28   ar
    39    22    23   ar
    40    22    27   ar
    41    23    24   ar
    42    23    42    1
    43    24    25   ar
    44    24    43    1
    45    25    26   ar
    46    26    27   ar
    47    26    44    1
    48    27    45    1
    49    28    46    1
    50    29    47    1
@<TRIPOS>MOLECULE
AD3CC00452914-I00-C00
 36 38 0 0 0
SMALL
GASTEIGER

@<TRIPOS>ATOM
      1 O           2.8860   -0.6890   -3.2940 O.2     1  UNL1       -0.2867
      2 C           2.0510    0.0350   -2.7570 C.2     1  UNL1        0.1931
      3 C           1.4400    1.1400   -3.5370 C.ar    1  UNL1        0.0223
      4 C           1.1220    2.3690   -2.9460 C.ar    1  UNL1       -0.0509
      5 C           0.5590    3.3880   -3.7180 C.ar    1  UNL1       -0.0611
      6 C           0.3260    3.1870   -5.0790 C.ar    1  UNL1       -0.0617
      7 C           0.6620    1.9710   -5.6750 C.ar    1  UNL1       -0.0611
      8 C           1.2250    0.9500   -4.9070 C.ar    1  UNL1       -0.0509
      9 C           1.6760   -0.2190   -1.3430 C.ar    1  UNL1        0.0224
     10 C           0.3730   -0.0240   -0.8790 C.ar    1  UNL1       -0.0492
     11 C           0.0620   -0.2860    0.4610 C.ar    1  UNL1       -0.0399
     12 C           1.0310   -0.7640    1.3510 C.ar    1  UNL1        0.0313
     13 N           0.7700   -1.0030    2.7100 N.pl3   1  UNL1       -0.3145
     14 C          -0.2000   -0.4890    3.5880 C.ar    1  UNL1        0.0313
     15 C          -0.6260   -1.2790    4.6660 C.ar    1  UNL1       -0.0405
     16 C          -1.6150   -0.8280    5.5450 C.ar    1  UNL1       -0.0600
     17 C          -2.1980    0.4220    5.3560 C.ar    1  UNL1       -0.0616
     18 C          -1.7910    1.2180    4.2890 C.ar    1  UNL1       -0.0600
     19 C          -0.8020    0.7620    3.4110 C.ar    1  UNL1       -0.0405
     20 C           2.3310   -0.9700    0.8640 C.ar    1  UNL1       -0.0399
     21 C           2.6520   -0.7090   -0.4720 C.ar    1  UNL1       -0.0492
     22 H           1.3220    2.5550   -1.8940 H       1  UNL1        0.0625
     23 H           0.3120    4.3430   -3.2620 H       1  UNL1        0.0618
     24 H          -0.1070    3.9830   -5.6800 H       1  UNL1        0.0618
     25 H           0.4930    1.8200   -6.7380 H       1  UNL1        0.0618
     26 H           1.4960    0.0070   -5.3770 H       1  UNL1        0.0625
     27 H          -0.4180    0.3090   -1.5450 H       1  UNL1        0.0625
     28 H          -0.9650   -0.1500    0.7920 H       1  UNL1        0.0636
     29 H           1.3780   -1.6960    3.1310 H       1  UNL1        0.1522
     30 H          -0.1960   -2.2650    4.8250 H       1  UNL1        0.0636
     31 H          -1.9320   -1.4560    6.3740 H       1  UNL1        0.0618
     32 H          -2.9660    0.7750    6.0380 H       1  UNL1        0.0618
     33 H          -2.2370    2.1970    4.1390 H       1  UNL1        0.0618
     34 H          -0.4840    1.4150    2.6030 H       1  UNL1        0.0636
     35 H           3.1130   -1.3310    1.5280 H       1  UNL1        0.0636
     36 H           3.6650   -0.8860   -0.8280 H       1  UNL1        0.0625
@<TRIPOS>BOND
     1     1     2    2
     2     2     3    1
     3     2     9    1
     4     3     4   ar
     5     3     8   ar
     6     4     5   ar
     7     4    22    1
     8     5     6   ar
     9     5    23    1
    10     6     7   ar
    11     6    24    1
    12     7     8   ar
    13     7    25    1
    14     8    26    1
    15     9    10   ar
    16     9    21   ar
    17    10    11   ar
    18    10    27    1
    19    11    12   ar
    20    11    28    1
    21    12    13    1
    22    12    20   ar
    23    13    14    1
    24    13    29    1
    25    14    15   ar
    26    14    19   ar
    27    15    16   ar
    28    15    30    1
    29    16    17   ar
    30    16    31    1
    31    17    18   ar
    32    17    32    1
    33    18    19   ar
    34    18    33    1
    35    19    34    1
    36    20    21   ar
    37    20    35    1
    38    21    36    1
@<TRIPOS>MOLECULE
AD3CC00453190-I00-C02
 44 46 0 0 0
SMALL
GASTEIGER

@<TRIPOS>ATOM
      1 C          -2.6390   -1.7860    2.8200 C.3     1  UNL1       -0.0379
      2 C          -1.7980   -1.3590    1.6480 C.ar    1  UNL1       -0.0286
      3 C          -2.3610   -1.4100    0.3590 C.ar    1  UNL1       -0.0462
      4 C          -1.6300   -1.0120   -0.7660 C.ar    1  UNL1        0.0226
      5 C          -2.2810   -1.0940   -2.1030 C.2     1  UNL1        0.1934
      6 O          -3.2530   -1.8240   -2.2730 O.2     1  UNL1       -0.2866
      7 C          -1.7750   -0.2910   -3.2420 C.ar    1  UNL1        0.0252
      8 C          -1.7190    1.1040   -3.1030 C.ar    1  UNL1       -0.0507
      9 C          -1.2630    1.8920   -4.1580 C.ar    1  UNL1       -0.0611
     10 C          -0.8730    1.2920   -5.3530 C.ar    1  UNL1       -0.0615
     11 C          -0.9410   -0.0950   -5.4990 C.ar    1  UNL1       -0.0582
     12 C          -1.3880   -0.9080   -4.4460 C.ar    1  UNL1       -0.0396
     13 C          -1.4700   -2.3960   -4.6410 C.3     1  UNL1       -0.0390
     14 C          -0.3120   -0.5830   -0.6090 C.ar    1  UNL1       -0.0492
     15 C           0.2550   -0.5320    0.6680 C.ar    1  UNL1       -0.0396
     16 C          -0.4700   -0.9110    1.8100 C.ar    1  UNL1        0.0343
     17 N           0.1260   -0.8450    3.0830 N.pl3   1  UNL1       -0.3128
     18 C           0.9190    0.1730    3.6730 C.ar    1  UNL1        0.0523
     19 C           1.0380    1.4590    3.1340 C.ar    1  UNL1       -0.0387
     20 C           1.7960    2.4360    3.7850 C.ar    1  UNL1       -0.0599
     21 C           2.4320    2.1400    4.9880 C.ar    1  UNL1       -0.0599
     22 C           2.3360    0.8580    5.5300 C.ar    1  UNL1       -0.0392
     23 C           1.6380   -0.1460    4.8510 C.ar    1  UNL1        0.0460
     24 N           1.4870   -1.4220    5.4440 N.pl3   1  UNL1       -0.3565
     25 H          -2.7120   -0.9750    3.5520 H       1  UNL1        0.0278
     26 H          -2.2050   -2.6710    3.2950 H       1  UNL1        0.0278
     27 H          -3.6590   -2.0410    2.5140 H       1  UNL1        0.0278
     28 H          -3.3840   -1.7610    0.2280 H       1  UNL1        0.0628
     29 H          -2.0450    1.5820   -2.1820 H       1  UNL1        0.0625
     30 H          -1.2220    2.9730   -4.0530 H       1  UNL1        0.0618
     31 H          -0.5260    1.9070   -6.1810 H       1  UNL1        0.0618
     32 H          -0.6450   -0.5400   -6.4480 H       1  UNL1        0.0620
     33 H          -0.9150   -2.7100   -5.5310 H       1  UNL1        0.0278
     34 H          -2.5120   -2.7040   -4.7660 H       1  UNL1        0.0278
     35 H          -1.0300   -2.9250   -3.7890 H       1  UNL1        0.0278
     36 H           0.3010   -0.3030   -1.4610 H       1  UNL1        0.0625
     37 H           1.2920   -0.2190    0.7680 H       1  UNL1        0.0636
     38 H          -0.3810   -1.3280    3.8200 H       1  UNL1        0.1522
     39 H           0.5050    1.7330    2.2290 H       1  UNL1        0.0637
     40 H           1.8640    3.4360    3.3650 H       1  UNL1        0.0618
     41 H           2.9950    2.9090    5.5100 H       1  UNL1        0.0618
     42 H           2.8200    0.6450    6.4780 H       1  UNL1        0.0636
     43 H           1.3830   -2.1310    4.7190 H       1  UNL1        0.1424
     44 H           2.2540   -1.6490    6.0700 H       1  UNL1        0.1424
@<TRIPOS>BOND
     1     1     2    1
     2     1    25    1
     3     1    26    1
     4     1    27    1
     5     2     3   ar
     6     2    16   ar
     7     3     4   ar
     8     3    28    1
     9     4     5    1
    10     4    14   ar
    11     5     6    2
    12     5     7    1
    13     7     8   ar
    14     7    12   ar
    15     8     9   ar
    16     8    29    1
    17     9    10   ar
    18     9    30    1
    19    10    11   ar
    20    10    31    1
    21    11    12   ar
    22    11    32    1
    23    12    13    1
    24    13    33    1
    25    13    34    1
    26    13    35    1
    27    14    15   ar
    28    14    36    1
    29    15    16   ar
    30    15    37    1
    31    16    17    1
    32    17    18    1
    33    17    38    1
    34    18    19   ar
    35    18    23   ar
    36    19    20   ar
    37    19    39    1
    38    20    21   ar
    39    20    40    1
    40    21    22   ar
    41    21    41    1
    42    22    23   ar
    43    22    42    1
    44    23    24    1
    45    24    43    1
    46    24    44    1
@<TRIPOS>MOLECULE
AD3CC00459933-I00-C00
 29 31 0 0 0
SMALL
GASTEIGER

@<TRIPOS>ATOM
      1 CL         -3.2310   -6.3820    2.6250 Cl      1  UNL1       -0.0835
      2 C          -2.3200   -5.0350    2.0670 C.ar    1  UNL1        0.0410
      3 C          -2.7190   -4.3530    0.9220 C.ar    1  UNL1       -0.0428
      4 C          -1.9760   -3.2550    0.4680 C.ar    1  UNL1       -0.0513
      5 C          -0.8260   -2.8240    1.1490 C.ar    1  UNL1       -0.0016
      6 C          -0.0300   -1.6720    0.6890 C.ar    1  UNL1        0.0469
      7 C           1.1160   -1.1010    1.2150 C.ar    1  UNL1       -0.0358
      8 C           1.4900   -0.0090    0.3960 C.ar    1  UNL1       -0.0358
      9 C           0.5750    0.0980   -0.6370 C.ar    1  UNL1        0.0470
     10 C           0.4990    1.0530   -1.7560 C.ar    1  UNL1        0.0012
     11 C          -0.5170    0.9990   -2.7150 C.ar    1  UNL1       -0.0345
     12 C          -0.5260    1.9320   -3.7430 C.ar    1  UNL1        0.0282
     13 N           0.3940    2.9060   -3.8850 N.ar    1  UNL1       -0.2632
     14 C           1.3680    2.9480   -2.9550 C.ar    1  UNL1        0.0282
     15 C           1.4610    2.0600   -1.8930 C.ar    1  UNL1       -0.0345
     16 N          -0.3320   -0.9230   -0.4310 N.ar    1  UNL1       -0.3542
     17 C          -0.4460   -3.5320    2.3030 C.ar    1  UNL1       -0.0513
     18 C          -1.1860   -4.6290    2.7600 C.ar    1  UNL1       -0.0428
     19 H          -3.6050   -4.6670    0.3770 H       1  UNL1        0.0632
     20 H          -2.3260   -2.7550   -0.4290 H       1  UNL1        0.0625
     21 H           1.6450   -1.4280    2.1010 H       1  UNL1        0.0639
     22 H           2.3480    0.6300    0.5580 H       1  UNL1        0.0639
     23 H          -1.3030    0.2560   -2.6920 H       1  UNL1        0.0639
     24 H          -1.3020    1.9170   -4.5040 H       1  UNL1        0.0830
     25 H           2.1000    3.7390   -3.0860 H       1  UNL1        0.0830
     26 H           2.2800    2.1690   -1.1910 H       1  UNL1        0.0639
     27 H          -1.1230   -1.1010   -1.0290 H       1  UNL1        0.1659
     28 H           0.4350   -3.2410    2.8680 H       1  UNL1        0.0625
     29 H          -0.8670   -5.1560    3.6550 H       1  UNL1        0.0632
@<TRIPOS>BOND
     1     1     2    1
     2     2     3   ar
     3     2    18   ar
     4     3     4   ar
     5     3    19    1
     6     4     5   ar
     7     4    20    1
     8     5     6    1
     9     5    17   ar
    10     6     7   ar
    11     6    16   ar
    12     7     8   ar
    13     7    21    1
    14     8     9   ar
    15     8    22    1
    16     9    10    1
    17     9    16   ar
    18    10    11   ar
    19    10    15   ar
    20    11    12   ar
    21    11    23    1
    22    12    13   ar
    23    12    24    1
    24    13    14   ar
    25    14    15   ar
    26    14    25    1
    27    15    26    1
    28    16    27    1
    29    17    18   ar
    30    17    28    1
    31    18    29    1
@<TRIPOS>MOLECULE
AD3CC00460013-I00-C00
 38 40 0 0 0
SMALL
GASTEIGER

@<TRIPOS>ATOM
      1 C          -1.5320    3.5790   -0.9880 C.3     1  UNL1       -0.0586
      2 C          -0.9850    3.0630    0.3450 C.3     1  UNL1       -0.0195
      3 C           0.0460    4.0390    0.9170 C.3     1  UNL1       -0.0586
      4 C          -0.4220    1.6690    0.2070 C.ar    1  UNL1       -0.0190
      5 C           0.7400    1.3000   -0.5370 C.ar    1  UNL1       -0.0324
      6 C           0.9470   -0.0600   -0.4040 C.ar    1  UNL1        0.0472
      7 C           1.9790   -0.9290   -0.9700 C.ar    1  UNL1       -0.0016
      8 C           2.4690   -2.0330   -0.2570 C.ar    1  UNL1       -0.0513
      9 C           3.4560   -2.8570   -0.8080 C.ar    1  UNL1       -0.0428
     10 C           3.9610   -2.5810   -2.0770 C.ar    1  UNL1        0.0410
     11 CL          5.1740   -3.5950   -2.7550 Cl      1  UNL1       -0.0835
     12 C           3.4890   -1.4870   -2.7970 C.ar    1  UNL1       -0.0428
     13 C           2.5030   -0.6640   -2.2440 C.ar    1  UNL1       -0.0513
     14 N          -0.0740   -0.5230    0.3930 N.ar    1  UNL1       -0.3539
     15 C          -0.9130    0.5000    0.7730 C.ar    1  UNL1        0.0505
     16 C          -2.0860    0.2510    1.6040 C.ar    1  UNL1        0.0014
     17 C          -1.9450   -0.2560    2.8950 C.ar    1  UNL1       -0.0345
     18 C          -3.0900   -0.4810    3.6410 C.ar    1  UNL1        0.0282
     19 N          -4.3400   -0.2440    3.1900 N.ar    1  UNL1       -0.2632
     20 C          -4.4490    0.2490    1.9370 C.ar    1  UNL1        0.0282
     21 C          -3.3660    0.5100    1.1160 C.ar    1  UNL1       -0.0345
     22 H          -0.7410    3.6730   -1.7400 H       1  UNL1        0.0235
     23 H          -1.9950    4.5640   -0.8620 H       1  UNL1        0.0235
     24 H          -2.2920    2.8990   -1.3890 H       1  UNL1        0.0235
     25 H          -1.8230    3.0370    1.0530 H       1  UNL1        0.0344
     26 H           0.4310    3.6810    1.8780 H       1  UNL1        0.0235
     27 H           0.9000    4.1690    0.2430 H       1  UNL1        0.0235
     28 H          -0.4040    5.0240    1.0820 H       1  UNL1        0.0235
     29 H           1.3700    1.9740   -1.1050 H       1  UNL1        0.0642
     30 H           2.1070   -2.2550    0.7430 H       1  UNL1        0.0625
     31 H           3.8290   -3.7050   -0.2410 H       1  UNL1        0.0632
     32 H           3.8800   -1.2680   -3.7870 H       1  UNL1        0.0632
     33 H           2.1400    0.1820   -2.8230 H       1  UNL1        0.0625
     34 H          -0.2200   -1.4930    0.6340 H       1  UNL1        0.1659
     35 H          -0.9690   -0.4570    3.3220 H       1  UNL1        0.0639
     36 H          -3.0300   -0.8680    4.6550 H       1  UNL1        0.0830
     37 H          -5.4650    0.4330    1.5990 H       1  UNL1        0.0830
     38 H          -3.5200    0.9020    0.1160 H       1  UNL1        0.0639
@<TRIPOS>BOND
     1     1     2    1
     2     1    22    1
     3     1    23    1
     4     1    24    1
     5     2     3    1
     6     2     4    1
     7     2    25    1
     8     3    26    1
     9     3    27    1
    10     3    28    1
    11     4     5   ar
    12     4    15   ar
    13     5     6   ar
    14     5    29    1
    15     6     7    1
    16     6    14   ar
    17     7     8   ar
    18     7    13   ar
    19     8     9   ar
    20     8    30    1
    21     9    10   ar
    22     9    31    1
    23    10    11    1
    24    10    12   ar
    25    12    13   ar
    26    12    32    1
    27    13    33    1
    28    14    15   ar
    29    14    34    1
    30    15    16    1
    31    16    17   ar
    32    16    21   ar
    33    17    18   ar
    34    17    35    1
    35    18    19   ar
    36    18    36    1
    37    19    20   ar
    38    20    21   ar
    39    20    37    1
    40    21    38    1
@<TRIPOS>MOLECULE
AD3CC00460118-I00-C00
 29 31 0 0 0
SMALL
GASTEIGER

@<TRIPOS>ATOM
      1 F           4.5460   -0.0420    2.1800 F       1  UNL1       -0.2055
      2 C           3.5210   -0.1250    1.3220 C.ar    1  UNL1        0.1234
      3 C           2.3910   -0.8540    1.6740 C.ar    1  UNL1       -0.0259
      4 C           1.3220   -0.9400    0.7800 C.ar    1  UNL1       -0.0513
      5 C           1.3840   -0.2910   -0.4620 C.ar    1  UNL1       -0.0157
      6 C           0.2800   -0.3760   -1.4070 C.ar    1  UNL1        0.0074
      7 C           0.3410   -0.7530   -2.7790 C.ar    1  UNL1       -0.0361
      8 C          -0.9350   -0.6970   -3.2860 C.ar    1  UNL1        0.0028
      9 N          -1.7660   -0.2960   -2.2760 N.ar    1  UNL1       -0.3602
     10 C          -1.0510   -0.0870   -1.1140 C.ar    1  UNL1        0.0544
     11 C          -1.7090    0.3960    0.1010 C.ar    1  UNL1        0.0017
     12 C          -2.8220   -0.2680    0.6190 C.ar    1  UNL1       -0.0345
     13 C          -3.4110    0.2280    1.7710 C.ar    1  UNL1        0.0282
     14 N          -2.9740    1.3250    2.4250 N.ar    1  UNL1       -0.2632
     15 C          -1.8950    1.9490    1.9070 C.ar    1  UNL1        0.0282
     16 C          -1.2370    1.5300    0.7630 C.ar    1  UNL1       -0.0345
     17 C           2.5360    0.4320   -0.8020 C.ar    1  UNL1       -0.0513
     18 C           3.6040    0.5170    0.0930 C.ar    1  UNL1       -0.0259
     19 H           2.3480   -1.3510    2.6380 H       1  UNL1        0.0646
     20 H           0.4440   -1.5200    1.0560 H       1  UNL1        0.0624
     21 H           1.2260   -1.0430   -3.3320 H       1  UNL1        0.0639
     22 H          -1.3210   -0.9040   -4.2750 H       1  UNL1        0.0807
     23 H          -2.7610   -0.1420   -2.3710 H       1  UNL1        0.1653
     24 H          -3.2170   -1.1650    0.1540 H       1  UNL1        0.0639
     25 H          -4.2740   -0.2600    2.2130 H       1  UNL1        0.0830
     26 H          -1.5600    2.8260    2.4530 H       1  UNL1        0.0830
     27 H          -0.3770    2.0810    0.3980 H       1  UNL1        0.0639
     28 H           2.6040    0.9410   -1.7620 H       1  UNL1        0.0624
     29 H           4.4980    1.0790   -0.1610 H       1  UNL1        0.0646
@<TRIPOS>BOND
     1     1     2    1
     2     2     3   ar
     3     2    18   ar
     4     3     4   ar
     5     3    19    1
     6     4     5   ar
     7     4    20    1
     8     5     6    1
     9     5    17   ar
    10     6     7   ar
    11     6    10   ar
    12     7     8   ar
    13     7    21    1
    14     8     9   ar
    15     8    22    1
    16     9    10   ar
    17     9    23    1
    18    10    11    1
    19    11    12   ar
    20    11    16   ar
    21    12    13   ar
    22    12    24    1
    23    13    14   ar
    24    13    25    1
    25    14    15   ar
    26    15    16   ar
    27    15    26    1
    28    16    27    1
    29    17    18   ar
    30    17    28    1
    31    18    29    1
@<TRIPOS>MOLECULE
AD3CC00460527-I00-C00
 39 42 0 0 0
SMALL
GASTEIGER

@<TRIPOS>ATOM
      1 CL         -1.5420    5.7520    4.5390 Cl      1  UNL1       -0.0835
      2 C          -1.2550    4.4470    3.4560 C.ar    1  UNL1        0.0410
      3 C          -1.9540    3.2520    3.6110 C.ar    1  UNL1       -0.0428
      4 C          -1.7200    2.1900    2.7310 C.ar    1  UNL1       -0.0513
      5 C          -0.7860    2.3150    1.6920 C.ar    1  UNL1       -0.0016
      6 C          -0.5330    1.2110    0.7670 C.ar    1  UNL1        0.0475
      7 C          -0.2340    1.2170   -0.5830 C.ar    1  UNL1       -0.0281
      8 C          -0.0650   -0.1280   -1.0190 C.ar    1  UNL1        0.0080
      9 C           0.2520   -0.5920   -2.3610 C.ar    1  UNL1       -0.0158
     10 C          -0.5080   -0.1420   -3.4490 C.ar    1  UNL1       -0.0526
     11 C          -0.2120   -0.5740   -4.7450 C.ar    1  UNL1       -0.0428
     12 C           0.8490   -1.4540   -4.9550 C.ar    1  UNL1        0.0410
     13 CL          1.2120   -1.9880   -6.5500 Cl      1  UNL1       -0.0835
     14 C           1.6170   -1.9020   -3.8830 C.ar    1  UNL1       -0.0428
     15 C           1.3210   -1.4680   -2.5880 C.ar    1  UNL1       -0.0526
     16 C          -0.2640   -0.9460    0.0870 C.ar    1  UNL1        0.0548
     17 C          -0.2650   -2.4010    0.2500 C.ar    1  UNL1        0.0018
     18 C          -1.0440   -3.2080   -0.5790 C.ar    1  UNL1       -0.0345
     19 C          -1.0140   -4.5790   -0.3840 C.ar    1  UNL1        0.0282
     20 N          -0.2730   -5.1860    0.5670 N.ar    1  UNL1       -0.2632
     21 C           0.4760   -4.3860    1.3540 C.ar    1  UNL1        0.0282
     22 C           0.5120   -3.0060    1.2390 C.ar    1  UNL1       -0.0345
     23 N          -0.5350   -0.1110    1.1510 N.ar    1  UNL1       -0.3537
     24 C          -0.0960    3.5280    1.5490 C.ar    1  UNL1       -0.0513
     25 C          -0.3270    4.5900    2.4280 C.ar    1  UNL1       -0.0428
     26 H          -2.6850    3.1420    4.4070 H       1  UNL1        0.0632
     27 H          -2.2940    1.2760    2.8570 H       1  UNL1        0.0625
     28 H          -0.1480    2.1020   -1.2020 H       1  UNL1        0.0645
     29 H          -1.3410    0.5410   -3.2950 H       1  UNL1        0.0624
     30 H          -0.8100   -0.2230   -5.5810 H       1  UNL1        0.0632
     31 H           2.4460   -2.5850   -4.0450 H       1  UNL1        0.0632
     32 H           1.9340   -1.8170   -1.7590 H       1  UNL1        0.0624
     33 H          -1.6660   -2.7850   -1.3610 H       1  UNL1        0.0639
     34 H          -1.6040   -5.2440   -1.0080 H       1  UNL1        0.0830
     35 H           1.0700   -4.9010    2.1040 H       1  UNL1        0.0830
     36 H           1.1500   -2.4260    1.8960 H       1  UNL1        0.0639
     37 H          -0.7220   -0.4330    2.0900 H       1  UNL1        0.1659
     38 H           0.6380    3.6530    0.7560 H       1  UNL1        0.0625
     39 H           0.2190    5.5210    2.3040 H       1  UNL1        0.0632
@<TRIPOS>BOND
     1     1     2    1
     2     2     3   ar
     3     2    25   ar
     4     3     4   ar
     5     3    26    1
     6     4     5   ar
     7     4    27    1
     8     5     6    1
     9     5    24   ar
    10     6     7   ar
    11     6    23   ar
    12     7     8   ar
    13     7    28    1
    14     8     9    1
    15     8    16   ar
    16     9    10   ar
    17     9    15   ar
    18    10    11   ar
    19    10    29    1
    20    11    12   ar
    21    11    30    1
    22    12    13    1
    23    12    14   ar
    24    14    15   ar
    25    14    31    1
    26    15    32    1
    27    16    17    1
    28    16    23   ar
    29    17    18   ar
    30    17    22   ar
    31    18    19   ar
    32    18    33    1
    33    19    20   ar
    34    19    34    1
    35    20    21   ar
    36    21    22   ar
    37    21    35    1
    38    22    36    1
    39    23    37    1
    40    24    25   ar
    41    24    38    1
    42    25    39    1
@<TRIPOS>MOLECULE
AD3CC00476946-I00-C00
 57 61 0 0 0
SMALL
GASTEIGER

@<TRIPOS>ATOM
      1 C          -4.1830   -0.6980    2.2560 C.3     1  UNL1       -0.0397
      2 C          -3.5340    0.4050    1.4730 C.ar    1  UNL1       -0.0498
      3 C          -4.0520    1.7040    1.5110 C.ar    1  UNL1       -0.0588
      4 C          -3.4730    2.7160    0.7470 C.ar    1  UNL1       -0.0609
      5 C          -2.3710    2.4370   -0.0630 C.ar    1  UNL1       -0.0525
      6 C          -1.8330    1.1450   -0.1140 C.ar    1  UNL1        0.0027
      7 C          -0.6870    0.8890   -0.9730 C.ar    1  UNL1        0.0968
      8 N          -0.5380    1.5200   -2.1890 N.ar    1  UNL1       -0.2316
      9 C           0.5840    1.0680   -2.7040 C.ar    1  UNL1        0.1114
     10 C           1.2010    1.4430   -4.0220 C.3     1  UNL1        0.0194
     11 C           0.2740    1.1050   -5.1960 C.3     1  UNL1       -0.0307
     12 C          -0.8400    2.1330   -5.3870 C.3     1  UNL1       -0.0035
     13 N          -0.2940    3.4860   -5.5120 N.3     1  UNL1       -0.3159
     14 C           0.4320    3.8580   -4.2960 C.3     1  UNL1       -0.0035
     15 C           1.6120    2.9200   -4.0510 C.3     1  UNL1       -0.0307
     16 N           1.1720    0.1700   -1.8500 N.ar    1  UNL1       -0.3411
     17 C           0.3890    0.0490   -0.7230 C.ar    1  UNL1        0.0741
     18 C           0.7880   -0.7730    0.4150 C.ar    1  UNL1        0.0025
     19 C           0.8630   -0.1980    1.7070 C.ar    1  UNL1       -0.0505
     20 C           1.2420   -0.9530    2.8240 C.ar    1  UNL1       -0.0354
     21 C           1.5400   -2.2810    2.6110 C.ar    1  UNL1        0.0696
     22 C           1.4690   -2.8570    1.3410 C.ar    1  UNL1        0.0701
     23 C           1.0990   -2.1300    0.2290 C.ar    1  UNL1       -0.0269
     24 N           1.8230   -4.2070    1.4620 N.ar    1  UNL1       -0.2951
     25 C           1.8580   -5.1560    0.3880 C.3     1  UNL1        0.0167
     26 C           2.1170   -4.4880    2.8150 C.ar    1  UNL1        0.3297
     27 O           2.4550   -5.5630    3.2830 O.2     1  UNL1       -0.2463
     28 N           1.9390   -3.2740    3.5130 N.ar    1  UNL1       -0.2951
     29 C           2.1200   -3.0890    4.9230 C.3     1  UNL1        0.0167
     30 C          -2.4360    0.1310    0.6430 C.ar    1  UNL1       -0.0496
     31 H          -4.6550   -0.3080    3.1640 H       1  UNL1        0.0278
     32 H          -3.4420   -1.4410    2.5700 H       1  UNL1        0.0278
     33 H          -4.9440   -1.1920    1.6460 H       1  UNL1        0.0278
     34 H          -4.9160    1.9330    2.1310 H       1  UNL1        0.0620
     35 H          -3.8830    3.7220    0.7750 H       1  UNL1        0.0618
     36 H          -1.9310    3.2320   -0.6620 H       1  UNL1        0.0624
     37 H           2.1130    0.8420   -4.1380 H       1  UNL1        0.0380
     38 H          -0.1640    0.1060   -5.0730 H       1  UNL1        0.0284
     39 H           0.8750    1.0700   -6.1150 H       1  UNL1        0.0284
     40 H          -1.5690    2.0860   -4.5710 H       1  UNL1        0.0424
     41 H          -1.3870    1.8930   -6.3060 H       1  UNL1        0.0424
     42 H          -1.0710    4.1360   -5.6370 H       1  UNL1        0.1219
     43 H          -0.2450    3.8770   -3.4340 H       1  UNL1        0.0424
     44 H           0.8120    4.8790   -4.4160 H       1  UNL1        0.0424
     45 H           2.1200    3.2020   -3.1210 H       1  UNL1        0.0284
     46 H           2.3420    3.0620   -4.8600 H       1  UNL1        0.0284
     47 H           2.0580   -0.2900   -2.0010 H       1  UNL1        0.1671
     48 H           0.6210    0.8560    1.8450 H       1  UNL1        0.0625
     49 H           1.2930   -0.5010    3.8070 H       1  UNL1        0.0639
     50 H           1.0310   -2.5960   -0.7470 H       1  UNL1        0.0645
     51 H           0.8590   -5.2430   -0.0500 H       1  UNL1        0.0457
     52 H           2.5670   -4.8170   -0.3720 H       1  UNL1        0.0457
     53 H           2.1720   -6.1370    0.7560 H       1  UNL1        0.0457
     54 H           2.8850   -2.3270    5.0930 H       1  UNL1        0.0457
     55 H           1.1740   -2.7710    5.3710 H       1  UNL1        0.0457
     56 H           2.4380   -4.0240    5.3930 H       1  UNL1        0.0457
     57 H          -2.0610   -0.8890    0.5820 H       1  UNL1        0.0627
@<TRIPOS>BOND
     1     1     2    1
     2     1    31    1
     3     1    32    1
     4     1    33    1
     5     2     3   ar
     6     2    30   ar
     7     3     4   ar
     8     3    34    1
     9     4     5   ar
    10     4    35    1
    11     5     6   ar
    12     5    36    1
    13     6     7    1
    14     6    30   ar
    15     7     8   ar
    16     7    17   ar
    17     8     9   ar
    18     9    10    1
    19     9    16   ar
    20    10    11    1
    21    10    15    1
    22    10    37    1
    23    11    12    1
    24    11    38    1
    25    11    39    1
    26    12    13    1
    27    12    40    1
    28    12    41    1
    29    13    14    1
    30    13    42    1
    31    14    15    1
    32    14    43    1
    33    14    44    1
    34    15    45    1
    35    15    46    1
    36    16    17   ar
    37    16    47    1
    38    17    18    1
    39    18    19   ar
    40    18    23   ar
    41    19    20   ar
    42    19    48    1
    43    20    21   ar
    44    20    49    1
    45    21    22   ar
    46    21    28   ar
    47    22    23   ar
    48    22    24   ar
    49    23    50    1
    50    24    25    1
    51    24    26   ar
    52    25    51    1
    53    25    52    1
    54    25    53    1
    55    26    27    2
    56    26    28   ar
    57    28    29    1
    58    29    54    1
    59    29    55    1
    60    29    56    1
    61    30    57    1
@<TRIPOS>MOLECULE
AD3CC00477709-I00-C00
 45 48 0 0 0
SMALL
GASTEIGER

@<TRIPOS>ATOM
      1 C           0.3370   -4.1230    1.9340 C.3     1  UNL1       -0.0469
      2 C           1.6810   -3.4270    2.0740 C.3     1  UNL1        0.0253
      3 N           1.7890   -2.2780    1.2130 N.ar    1  UNL1       -0.2923
      4 C           2.2540   -2.3140   -0.1210 C.ar    1  UNL1        0.3302
      5 O           2.6780   -3.2890   -0.7230 O.2     1  UNL1       -0.2463
      6 N           2.1130   -1.0020   -0.6230 N.ar    1  UNL1       -0.2923
      7 C           2.3870   -0.6060   -1.9810 C.3     1  UNL1        0.0253
      8 C           1.1620   -0.7340   -2.8720 C.3     1  UNL1       -0.0469
      9 C           1.5170   -0.2010    0.3610 C.ar    1  UNL1        0.0704
     10 C           1.1370    1.1250    0.3190 C.ar    1  UNL1       -0.0282
     11 C           0.5250    1.6640    1.4610 C.ar    1  UNL1       -0.0123
     12 C           0.0850    3.0480    1.4570 C.ar    1  UNL1        0.0273
     13 C           0.4030    3.9430    2.4570 C.ar    1  UNL1        0.0306
     14 N          -0.1210    5.1380    2.0740 N.ar    1  UNL1       -0.2835
     15 N          -0.7500    5.0980    0.8930 N.ar    1  UNL1       -0.1733
     16 C          -0.6560    3.8150    0.5000 C.ar    1  UNL1        0.1002
     17 C          -1.2620    3.3780   -0.7600 C.ar    1  UNL1        0.0027
     18 C          -1.9350    2.1510   -0.8530 C.ar    1  UNL1       -0.0525
     19 C          -2.4910    1.7380   -2.0660 C.ar    1  UNL1       -0.0611
     20 C          -2.3880    2.5490   -3.1950 C.ar    1  UNL1       -0.0617
     21 C          -1.7360    3.7780   -3.1110 C.ar    1  UNL1       -0.0611
     22 C          -1.1780    4.1910   -1.8990 C.ar    1  UNL1       -0.0525
     23 C           0.3270    0.8570    2.6090 C.ar    1  UNL1       -0.0518
     24 C           0.7230   -0.4860    2.6330 C.ar    1  UNL1       -0.0355
     25 C           1.3150   -0.9900    1.4950 C.ar    1  UNL1        0.0699
     26 H          -0.4850   -3.4550    2.2090 H       1  UNL1        0.0247
     27 H           0.1700   -4.4500    0.9020 H       1  UNL1        0.0247
     28 H           0.2950   -5.0030    2.5830 H       1  UNL1        0.0247
     29 H           2.4750   -4.1330    1.8040 H       1  UNL1        0.0491
     30 H           1.8540   -3.1230    3.1120 H       1  UNL1        0.0491
     31 H           3.1790   -1.2530   -2.3730 H       1  UNL1        0.0491
     32 H           2.7680    0.4200   -1.9900 H       1  UNL1        0.0491
     33 H           1.4080   -0.4500   -3.9000 H       1  UNL1        0.0247
     34 H           0.3500   -0.0880   -2.5250 H       1  UNL1        0.0247
     35 H           0.7890   -1.7630   -2.8800 H       1  UNL1        0.0247
     36 H           1.3030    1.7270   -0.5680 H       1  UNL1        0.0645
     37 H           0.9620    3.8420    3.3770 H       1  UNL1        0.0830
     38 H          -0.0770    6.0270    2.5620 H       1  UNL1        0.1882
     39 H          -2.0420    1.5100    0.0180 H       1  UNL1        0.0624
     40 H          -3.0090    0.7840   -2.1280 H       1  UNL1        0.0618
     41 H          -2.8250    2.2280   -4.1370 H       1  UNL1        0.0618
     42 H          -1.6630    4.4180   -3.9870 H       1  UNL1        0.0618
     43 H          -0.6750    5.1550   -1.8430 H       1  UNL1        0.0624
     44 H          -0.1560    1.2760    3.4900 H       1  UNL1        0.0624
     45 H           0.5580   -1.0940    3.5140 H       1  UNL1        0.0639
@<TRIPOS>BOND
     1     1     2    1
     2     1    26    1
     3     1    27    1
     4     1    28    1
     5     2     3    1
     6     2    29    1
     7     2    30    1
     8     3     4   ar
     9     3    25   ar
    10     4     5    2
    11     4     6   ar
    12     6     7    1
    13     6     9   ar
    14     7     8    1
    15     7    31    1
    16     7    32    1
    17     8    33    1
    18     8    34    1
    19     8    35    1
    20     9    10   ar
    21     9    25   ar
    22    10    11   ar
    23    10    36    1
    24    11    12    1
    25    11    23   ar
    26    12    13   ar
    27    12    16   ar
    28    13    14   ar
    29    13    37    1
    30    14    15   ar
    31    14    38    1
    32    15    16   ar
    33    16    17    1
    34    17    18   ar
    35    17    22   ar
    36    18    19   ar
    37    18    39    1
    38    19    20   ar
    39    19    40    1
    40    20    21   ar
    41    20    41    1
    42    21    22   ar
    43    21    42    1
    44    22    43    1
    45    23    24   ar
    46    23    44    1
    47    24    25   ar
    48    24    45    1
@<TRIPOS>MOLECULE
AD3CC00477801-I00-C01
 39 42 0 0 0
SMALL
GASTEIGER

@<TRIPOS>ATOM
      1 C          -0.4360   -5.8570   -2.3400 C.3     1  UNL1        0.0167
      2 N          -0.9870   -4.5460   -2.1590 N.ar    1  UNL1       -0.2951
      3 C          -2.3530   -4.2520   -1.9470 C.ar    1  UNL1        0.3297
      4 O          -3.2750   -5.0510   -1.8910 O.2     1  UNL1       -0.2463
      5 N          -2.4340   -2.8490   -1.8120 N.ar    1  UNL1       -0.2951
      6 C          -3.6310   -2.1010   -1.5630 C.3     1  UNL1        0.0167
      7 C          -1.1500   -2.3030   -1.9310 C.ar    1  UNL1        0.0701
      8 C          -0.7310   -0.9910   -1.8620 C.ar    1  UNL1       -0.0269
      9 C           0.6420   -0.7360   -2.0100 C.ar    1  UNL1        0.0025
     10 C           1.1400    0.6340   -1.9430 C.ar    1  UNL1        0.0739
     11 N           1.9320    1.1780   -2.9310 N.ar    1  UNL1       -0.3439
     12 C           2.1590    2.4880   -2.6320 C.ar    1  UNL1        0.0945
     13 N           1.5740    2.8300   -1.5100 N.ar    1  UNL1       -0.2353
     14 C           0.9500    1.6860   -1.0540 C.ar    1  UNL1        0.0965
     15 C           0.1890    1.6730    0.1850 C.ar    1  UNL1        0.0024
     16 C          -0.5750    2.7960    0.5310 C.ar    1  UNL1       -0.0525
     17 C          -1.3220    2.8140    1.7110 C.ar    1  UNL1       -0.0611
     18 C          -1.3040    1.7110    2.5630 C.ar    1  UNL1       -0.0617
     19 C          -0.5340    0.5960    2.2400 C.ar    1  UNL1       -0.0611
     20 C           0.2140    0.5780    1.0600 C.ar    1  UNL1       -0.0525
     21 C           1.5420   -1.8090   -2.2280 C.ar    1  UNL1       -0.0505
     22 C           1.0960   -3.1350   -2.2970 C.ar    1  UNL1       -0.0354
     23 C          -0.2550   -3.3530   -2.1450 C.ar    1  UNL1        0.0696
     24 H           0.0710   -5.9060   -3.3080 H       1  UNL1        0.0457
     25 H           0.2770   -6.0630   -1.5370 H       1  UNL1        0.0457
     26 H          -1.2280   -6.6110   -2.3150 H       1  UNL1        0.0457
     27 H          -3.7810   -1.3780   -2.3700 H       1  UNL1        0.0457
     28 H          -4.4950   -2.7690   -1.5170 H       1  UNL1        0.0457
     29 H          -3.5370   -1.5750   -0.6080 H       1  UNL1        0.0457
     30 H          -1.4380   -0.1850   -1.6980 H       1  UNL1        0.0645
     31 H           2.2510    0.7000   -3.7620 H       1  UNL1        0.1668
     32 H           2.7450    3.1400   -3.2660 H       1  UNL1        0.1027
     33 H          -0.5880    3.6650   -0.1250 H       1  UNL1        0.0624
     34 H          -1.9110    3.6910    1.9650 H       1  UNL1        0.0618
     35 H          -1.8820    1.7260    3.4840 H       1  UNL1        0.0618
     36 H          -0.5080   -0.2600    2.9100 H       1  UNL1        0.0618
     37 H           0.8250   -0.2930    0.8400 H       1  UNL1        0.0624
     38 H           2.6090   -1.6130   -2.3220 H       1  UNL1        0.0625
     39 H           1.7940   -3.9490   -2.4560 H       1  UNL1        0.0639
@<TRIPOS>BOND
     1     1     2    1
     2     1    24    1
     3     1    25    1
     4     1    26    1
     5     2     3   ar
     6     2    23   ar
     7     3     4    2
     8     3     5   ar
     9     5     6    1
    10     5     7   ar
    11     6    27    1
    12     6    28    1
    13     6    29    1
    14     7     8   ar
    15     7    23   ar
    16     8     9   ar
    17     8    30    1
    18     9    10    1
    19     9    21   ar
    20    10    11   ar
    21    10    14   ar
    22    11    12   ar
    23    11    31    1
    24    12    13   ar
    25    12    32    1
    26    13    14   ar
    27    14    15    1
    28    15    16   ar
    29    15    20   ar
    30    16    17   ar
    31    16    33    1
    32    17    18   ar
    33    17    34    1
    34    18    19   ar
    35    18    35    1
    36    19    20   ar
    37    19    36    1
    38    20    37    1
    39    21    22   ar
    40    21    38    1
    41    22    23   ar
    42    22    39    1
@<TRIPOS>MOLECULE
AD3CC00493924-I00-C00
 46 50 0 0 0
SMALL
GASTEIGER

@<TRIPOS>ATOM
      1 F          -2.1380    0.6850    4.6090 F       1  UNL1       -0.2055
      2 C          -1.9210    0.5250    3.2970 C.ar    1  UNL1        0.1234
      3 C          -1.8630   -0.7570    2.7640 C.ar    1  UNL1       -0.0259
      4 C          -1.6360   -0.9240    1.3970 C.ar    1  UNL1       -0.0511
      5 C          -1.4660    0.1930    0.5660 C.ar    1  UNL1       -0.0105
      6 C          -1.2490    0.0210   -0.8600 C.ar    1  UNL1        0.0724
      7 C          -0.2040    0.4820   -1.7360 C.ar    1  UNL1        0.1225
      8 C           1.0210    1.2280   -1.4020 C.ar    1  UNL1        0.0984
      9 C           1.7670    1.8350   -2.3940 C.ar    1  UNL1       -0.0157
     10 C           2.8990    2.4930   -1.9840 C.ar    1  UNL1        0.0350
     11 N           3.2940    2.5580   -0.7020 N.ar    1  UNL1       -0.2030
     12 C           2.5170    1.9200    0.1870 C.ar    1  UNL1        0.3239
     13 O           2.9310    2.0330    1.5070 O.3     1  UNL1       -0.4236
     14 C           2.4820    1.0910    2.4000 C.ar    1  UNL1        0.1319
     15 C           1.9430    1.5580    3.6000 C.ar    1  UNL1       -0.0192
     16 C           1.5240    0.6520    4.5750 C.ar    1  UNL1       -0.0583
     17 C           1.6590   -0.7190    4.3560 C.ar    1  UNL1       -0.0615
     18 C           2.2200   -1.1860    3.1670 C.ar    1  UNL1       -0.0583
     19 C           2.6420   -0.2820    2.1920 C.ar    1  UNL1       -0.0192
     20 N           1.3820    1.2660   -0.1040 N.ar    1  UNL1       -0.1930
     21 N          -0.4640    0.1230   -3.0130 N.ar    1  UNL1       -0.1660
     22 N          -1.6050   -0.5730   -2.9300 N.ar    1  UNL1       -0.2319
     23 C          -2.1410   -0.6470   -1.6770 C.ar    1  UNL1        0.2218
     24 O          -3.2860   -1.2900   -1.4160 O.3     1  UNL1       -0.4760
     25 C          -4.0970   -1.6080   -2.5540 C.3     1  UNL1        0.0929
     26 C          -3.2690   -2.1740   -3.7030 C.3     1  UNL1        0.0012
     27 C          -2.2100   -1.1570   -4.1070 C.3     1  UNL1        0.0482
     28 C          -1.5310    1.4790    1.1210 C.ar    1  UNL1       -0.0511
     29 C          -1.7580    1.6440    2.4890 C.ar    1  UNL1       -0.0259
     30 H          -1.9900   -1.6160    3.4130 H       1  UNL1        0.0646
     31 H          -1.5900   -1.9290    0.9820 H       1  UNL1        0.0625
     32 H           1.4810    1.7990   -3.4380 H       1  UNL1        0.0655
     33 H           3.5420    3.0030   -2.6960 H       1  UNL1        0.0832
     34 H           1.8420    2.6250    3.7720 H       1  UNL1        0.0654
     35 H           1.0870    1.0140    5.5010 H       1  UNL1        0.0619
     36 H           1.3270   -1.4240    5.1140 H       1  UNL1        0.0618
     37 H           2.3300   -2.2540    3.0000 H       1  UNL1        0.0619
     38 H           3.0910   -0.6530    1.2750 H       1  UNL1        0.0654
     39 H          -4.6400   -0.7060   -2.8630 H       1  UNL1        0.0697
     40 H          -4.8400   -2.3450   -2.2330 H       1  UNL1        0.0697
     41 H          -2.7710   -3.0920   -3.3660 H       1  UNL1        0.0316
     42 H          -3.9030   -2.4310   -4.5580 H       1  UNL1        0.0316
     43 H          -1.4230   -1.6260   -4.7060 H       1  UNL1        0.0511
     44 H          -2.6530   -0.3330   -4.6770 H       1  UNL1        0.0511
     45 H          -1.4020    2.3580    0.4950 H       1  UNL1        0.0625
     46 H          -1.8020    2.6350    2.9270 H       1  UNL1        0.0646
@<TRIPOS>BOND
     1     1     2    1
     2     2     3   ar
     3     2    29   ar
     4     3     4   ar
     5     3    30    1
     6     4     5   ar
     7     4    31    1
     8     5     6    1
     9     5    28   ar
    10     6     7   ar
    11     6    23   ar
    12     7     8    1
    13     7    21   ar
    14     8     9   ar
    15     8    20   ar
    16     9    10   ar
    17     9    32    1
    18    10    11   ar
    19    10    33    1
    20    11    12   ar
    21    12    13    1
    22    12    20   ar
    23    13    14    1
    24    14    15   ar
    25    14    19   ar
    26    15    16   ar
    27    15    34    1
    28    16    17   ar
    29    16    35    1
    30    17    18   ar
    31    17    36    1
    32    18    19   ar
    33    18    37    1
    34    19    38    1
    35    21    22   ar
    36    22    23   ar
    37    22    27    1
    38    23    24    1
    39    24    25    1
    40    25    26    1
    41    25    39    1
    42    25    40    1
    43    26    27    1
    44    26    41    1
    45    26    42    1
    46    27    43    1
    47    27    44    1
    48    28    29   ar
    49    28    45    1
    50    29    46    1
@<TRIPOS>MOLECULE
AD3CC00494274-I00-C01
 59 61 0 0 0
SMALL
GASTEIGER

@<TRIPOS>ATOM
      1 C           3.0130    7.2140   -5.0200 C.3     1  UNL1        0.0790
      2 O           3.8260    6.0690   -4.7940 O.3     1  UNL1       -0.4915
      3 C           3.2750    5.0310   -4.0930 C.ar    1  UNL1        0.1615
      4 C           2.0560    5.1000   -3.4100 C.ar    1  UNL1       -0.0156
      5 C           1.5440    3.9750   -2.7550 C.ar    1  UNL1       -0.0459
      6 C           2.2360    2.7610   -2.7890 C.ar    1  UNL1        0.0407
      7 C           1.6490    1.5820   -2.0940 C.2     1  UNL1        0.2484
      8 O           1.0210    1.7780   -1.0600 O.2     1  UNL1       -0.2699
      9 N           1.8540    0.3730   -2.7350 N.am    1  UNL1       -0.2812
     10 C           1.4650   -0.9190   -2.3020 C.ar    1  UNL1        0.0383
     11 C           0.8740   -1.1440   -1.0500 C.ar    1  UNL1       -0.0189
     12 C           0.5000   -2.4290   -0.6320 C.ar    1  UNL1        0.0354
     13 N          -0.0820   -2.5450    0.6490 N.am    1  UNL1       -0.2814
     14 C          -0.5920   -3.6860    1.2420 C.2     1  UNL1        0.2483
     15 O          -0.6910   -4.7980    0.7370 O.2     1  UNL1       -0.2699
     16 C          -1.0960   -3.4930    2.6300 C.ar    1  UNL1        0.0388
     17 C          -0.4320   -2.6690    3.5380 C.ar    1  UNL1       -0.0495
     18 C          -0.9500   -2.5200    4.8180 C.ar    1  UNL1       -0.0593
     19 C          -2.1170   -3.2030    5.1900 C.ar    1  UNL1       -0.0406
     20 C          -2.7970   -4.0710    4.3150 C.ar    1  UNL1        0.0299
     21 N          -3.9660   -4.7460    4.6890 N.pl3   1  UNL1       -0.3360
     22 C          -4.3720   -5.9180    3.9120 C.3     1  UNL1        0.0004
     23 C          -4.3750   -4.7480    6.0920 C.3     1  UNL1        0.0004
     24 C          -2.2540   -4.1860    3.0220 C.ar    1  UNL1       -0.0286
     25 C           0.7300   -3.5070   -1.4800 C.ar    1  UNL1       -0.0401
     26 C           1.3200   -3.3040   -2.7290 C.ar    1  UNL1       -0.0553
     27 C           1.6940   -2.0180   -3.1540 C.ar    1  UNL1       -0.0291
     28 C           2.3230   -1.8740   -4.5140 C.3     1  UNL1       -0.0380
     29 C           3.4690    2.6880   -3.4440 C.ar    1  UNL1       -0.0042
     30 C           3.9920    3.8220   -4.0720 C.ar    1  UNL1        0.1622
     31 O           5.1970    3.6320   -4.7040 O.3     1  UNL1       -0.4914
     32 C           6.2090    4.5220   -4.2340 C.3     1  UNL1        0.0790
     33 H           2.8210    7.7490   -4.0840 H       1  UNL1        0.0660
     34 H           2.0770    6.9460   -5.5230 H       1  UNL1        0.0660
     35 H           3.5640    7.8890   -5.6810 H       1  UNL1        0.0660
     36 H           1.4750    6.0160   -3.3660 H       1  UNL1        0.0655
     37 H           0.5940    4.0450   -2.2260 H       1  UNL1        0.0626
     38 H           2.2760    0.4190   -3.6520 H       1  UNL1        0.1551
     39 H           0.6990   -0.3140   -0.3730 H       1  UNL1        0.0655
     40 H          -0.1980   -1.6750    1.1540 H       1  UNL1        0.1551
     41 H           0.4900   -2.1600    3.2730 H       1  UNL1        0.0625
     42 H          -0.4490   -1.8790    5.5390 H       1  UNL1        0.0618
     43 H          -2.4730   -3.0420    6.2030 H       1  UNL1        0.0636
     44 H          -5.2520   -6.4020    4.3510 H       1  UNL1        0.0428
     45 H          -4.6600   -5.6360    2.8940 H       1  UNL1        0.0428
     46 H          -3.5720   -6.6650    3.8760 H       1  UNL1        0.0428
     47 H          -3.6260   -5.2420    6.7200 H       1  UNL1        0.0428
     48 H          -4.5480   -3.7300    6.4570 H       1  UNL1        0.0428
     49 H          -5.3240   -5.2780    6.2260 H       1  UNL1        0.0428
     50 H          -2.7310   -4.8160    2.2760 H       1  UNL1        0.0643
     51 H           0.4660   -4.5220   -1.2000 H       1  UNL1        0.0636
     52 H           1.4860   -4.1690   -3.3690 H       1  UNL1        0.0621
     53 H           2.4270   -2.8420   -5.0180 H       1  UNL1        0.0278
     54 H           1.7030   -1.2360   -5.1540 H       1  UNL1        0.0278
     55 H           3.3260   -1.4430   -4.4250 H       1  UNL1        0.0278
     56 H           4.0530    1.7720   -3.4450 H       1  UNL1        0.0663
     57 H           6.2000    5.4590   -4.8000 H       1  UNL1        0.0660
     58 H           6.1240    4.7170   -3.1580 H       1  UNL1        0.0660
     59 H           7.1780    4.0420   -4.4110 H       1  UNL1        0.0660
@<TRIPOS>BOND
     1     1     2    1
     2     1    33    1
     3     1    34    1
     4     1    35    1
     5     2     3    1
     6     3     4   ar
     7     3    30   ar
     8     4     5   ar
     9     4    36    1
    10     5     6   ar
    11     5    37    1
    12     6     7    1
    13     6    29   ar
    14     7     8    2
    15     7     9   am
    16     9    10    1
    17     9    38    1
    18    10    11   ar
    19    10    27   ar
    20    11    12   ar
    21    11    39    1
    22    12    13    1
    23    12    25   ar
    24    13    14   am
    25    13    40    1
    26    14    15    2
    27    14    16    1
    28    16    17   ar
    29    16    24   ar
    30    17    18   ar
    31    17    41    1
    32    18    19   ar
    33    18    42    1
    34    19    20   ar
    35    19    43    1
    36    20    21    1
    37    20    24   ar
    38    21    22    1
    39    21    23    1
    40    22    44    1
    41    22    45    1
    42    22    46    1
    43    23    47    1
    44    23    48    1
    45    23    49    1
    46    24    50    1
    47    25    26   ar
    48    25    51    1
    49    26    27   ar
    50    26    52    1
    51    27    28    1
    52    28    53    1
    53    28    54    1
    54    28    55    1
    55    29    30   ar
    56    29    56    1
    57    30    31    1
    58    31    32    1
    59    32    57    1
    60    32    58    1
    61    32    59    1
@<TRIPOS>MOLECULE
AD3CC00494345-I00-C00
 50 53 0 0 0
SMALL
GASTEIGER

@<TRIPOS>ATOM
      1 C          -4.3520   -0.4020    1.9820 C.3     1  UNL1        0.0790
      2 O          -3.2200   -0.9470    1.3180 O.3     1  UNL1       -0.4914
      3 C          -1.9920   -0.7160    1.8780 C.ar    1  UNL1        0.1635
      4 C          -1.7590    0.0310    3.0360 C.ar    1  UNL1        0.0098
      5 C          -0.4780    0.2320    3.5440 C.ar    1  UNL1        0.0797
      6 N          -0.3490    0.9500    4.6630 N.ar    1  UNL1       -0.2352
      7 C           0.8910    1.1130    5.1380 C.ar    1  UNL1        0.1187
      8 N           2.0160    0.6430    4.5910 N.ar    1  UNL1       -0.2200
      9 C           1.8760   -0.0480    3.4450 C.ar    1  UNL1        0.1340
     10 N           3.0960   -0.4820    2.8880 N.pl3   1  UNL1       -0.2988
     11 C           3.6120   -0.2170    1.5940 C.ar    1  UNL1        0.0342
     12 C           4.8070   -0.8500    1.2270 C.ar    1  UNL1       -0.0390
     13 C           5.3730   -0.6350   -0.0300 C.ar    1  UNL1       -0.0398
     14 C           4.7380    0.2100   -0.9380 C.ar    1  UNL1        0.0622
     15 CL          5.4720    0.4410   -2.4900 Cl      1  UNL1       -0.0816
     16 C           3.5320    0.8500   -0.6050 C.ar    1  UNL1        0.0539
     17 N           2.9210    1.6830   -1.5750 N.am    1  UNL1       -0.2802
     18 C           1.6580    2.2420   -1.5330 C.2     1  UNL1        0.2483
     19 O           0.8080    2.0520   -0.6710 O.2     1  UNL1       -0.2699
     20 C           1.3120    3.1060   -2.6980 C.ar    1  UNL1        0.0370
     21 C           2.2750    3.8820   -3.3570 C.ar    1  UNL1       -0.0496
     22 C           1.9040    4.6760   -4.4450 C.ar    1  UNL1       -0.0610
     23 C           0.5760    4.7040   -4.8720 C.ar    1  UNL1       -0.0617
     24 C          -0.3880    3.9480   -4.2070 C.ar    1  UNL1       -0.0610
     25 C          -0.0240    3.1540   -3.1190 C.ar    1  UNL1       -0.0496
     26 C           2.9960    0.6460    0.6730 C.ar    1  UNL1       -0.0178
     27 C           0.6200   -0.3300    2.8760 C.ar    1  UNL1        0.0441
     28 C           0.3910   -1.1250    1.7300 C.ar    1  UNL1       -0.0038
     29 C          -0.8960   -1.2810    1.2240 C.ar    1  UNL1        0.1623
     30 O          -1.0580   -2.0440    0.0960 O.3     1  UNL1       -0.4914
     31 C          -0.9790   -1.2060   -1.0600 C.3     1  UNL1        0.0790
     32 H          -4.4560   -0.8140    2.9910 H       1  UNL1        0.0660
     33 H          -4.3080    0.6920    2.0030 H       1  UNL1        0.0660
     34 H          -5.2420   -0.6870    1.4130 H       1  UNL1        0.0660
     35 H          -2.5790    0.4870    3.5820 H       1  UNL1        0.0677
     36 H           0.9920    1.6840    6.0540 H       1  UNL1        0.1048
     37 H           3.7980   -0.2140    3.5780 H       1  UNL1        0.1536
     38 H           5.3000   -1.5270    1.9220 H       1  UNL1        0.0636
     39 H           6.3010   -1.1370   -0.2940 H       1  UNL1        0.0633
     40 H           3.4390    1.7640   -2.4440 H       1  UNL1        0.1552
     41 H           3.3080    3.9050   -3.0220 H       1  UNL1        0.0625
     42 H           2.6490    5.2820   -4.9560 H       1  UNL1        0.0618
     43 H           0.2900    5.3260   -5.7170 H       1  UNL1        0.0618
     44 H          -1.4250    3.9800   -4.5320 H       1  UNL1        0.0618
     45 H          -0.7820    2.5720   -2.5990 H       1  UNL1        0.0625
     46 H           2.0960    1.1730    0.9700 H       1  UNL1        0.0655
     47 H           1.2160   -1.6150    1.2210 H       1  UNL1        0.0663
     48 H          -1.7310   -0.4100   -1.0360 H       1  UNL1        0.0660
     49 H           0.0250   -0.7790   -1.1650 H       1  UNL1        0.0660
     50 H          -1.1740   -1.8300   -1.9370 H       1  UNL1        0.0660
@<TRIPOS>BOND
     1     1     2    1
     2     1    32    1
     3     1    33    1
     4     1    34    1
     5     2     3    1
     6     3     4   ar
     7     3    29   ar
     8     4     5   ar
     9     4    35    1
    10     5     6   ar
    11     5    27   ar
    12     6     7   ar
    13     7     8   ar
    14     7    36    1
    15     8     9   ar
    16     9    10    1
    17     9    27   ar
    18    10    11    1
    19    10    37    1
    20    11    12   ar
    21    11    26   ar
    22    12    13   ar
    23    12    38    1
    24    13    14   ar
    25    13    39    1
    26    14    15    1
    27    14    16   ar
    28    16    17    1
    29    16    26   ar
    30    17    18   am
    31    17    40    1
    32    18    19    2
    33    18    20    1
    34    20    21   ar
    35    20    25   ar
    36    21    22   ar
    37    21    41    1
    38    22    23   ar
    39    22    42    1
    40    23    24   ar
    41    23    43    1
    42    24    25   ar
    43    24    44    1
    44    25    45    1
    45    26    46    1
    46    27    28   ar
    47    28    29   ar
    48    28    47    1
    49    29    30    1
    50    30    31    1
    51    31    48    1
    52    31    49    1
    53    31    50    1
@<TRIPOS>MOLECULE
AD3CC00494395-I00-C00
 56 58 0 0 0
SMALL
GASTEIGER

@<TRIPOS>ATOM
      1 C           6.2990   -5.8680   -0.7850 C.3     1  UNL1        0.0790
      2 O           6.5200   -4.4630   -0.7900 O.3     1  UNL1       -0.4915
      3 C           5.4790   -3.6520   -0.4280 C.ar    1  UNL1        0.1615
      4 C           4.1770   -4.1110   -0.1890 C.ar    1  UNL1       -0.0156
      5 C           3.1740   -3.2270    0.2240 C.ar    1  UNL1       -0.0459
      6 C           3.4620   -1.8740    0.4210 C.ar    1  UNL1        0.0407
      7 C           2.3640   -0.9700    0.8650 C.2     1  UNL1        0.2484
      8 O           1.2220   -1.2260    0.5020 O.2     1  UNL1       -0.2699
      9 N           2.7540    0.0700    1.6860 N.am    1  UNL1       -0.2802
     10 C           1.9470    1.1020    2.2260 C.ar    1  UNL1        0.0539
     11 C           0.5910    1.2560    1.9150 C.ar    1  UNL1       -0.0178
     12 C          -0.1710    2.3000    2.4660 C.ar    1  UNL1        0.0355
     13 N          -1.5240    2.3760    2.0770 N.am    1  UNL1       -0.2814
     14 C          -2.4780    3.2760    2.5150 C.2     1  UNL1        0.2483
     15 O          -2.3450    4.1230    3.3900 O.2     1  UNL1       -0.2699
     16 C          -3.8050    3.1440    1.8520 C.ar    1  UNL1        0.0388
     17 C          -4.9550    3.3240    2.6180 C.ar    1  UNL1       -0.0495
     18 C          -6.1990    3.1800    2.0180 C.ar    1  UNL1       -0.0593
     19 C          -6.2910    2.8740    0.6540 C.ar    1  UNL1       -0.0406
     20 C          -5.1550    2.7270   -0.1630 C.ar    1  UNL1        0.0299
     21 N          -5.2400    2.4190   -1.5270 N.pl3   1  UNL1       -0.3360
     22 C          -6.5560    2.2910   -2.1520 C.3     1  UNL1        0.0004
     23 C          -4.1780    2.9140   -2.4070 C.3     1  UNL1        0.0004
     24 C          -3.9090    2.8650    0.4770 C.ar    1  UNL1       -0.0286
     25 C           0.4410    3.2030    3.3360 C.ar    1  UNL1       -0.0390
     26 C           1.7940    3.0660    3.6560 C.ar    1  UNL1       -0.0398
     27 C           2.5400    2.0250    3.1040 C.ar    1  UNL1        0.0622
     28 CL          4.2150    1.9070    3.5260 Cl      1  UNL1       -0.0816
     29 C           4.7500   -1.4010    0.1620 C.ar    1  UNL1       -0.0042
     30 C           5.7480   -2.2790   -0.2800 C.ar    1  UNL1        0.1622
     31 O           6.9670   -1.6780   -0.4790 O.3     1  UNL1       -0.4914
     32 C           7.6360   -2.0720   -1.6750 C.3     1  UNL1        0.0790
     33 H           5.9820   -6.2170    0.2030 H       1  UNL1        0.0660
     34 H           5.5790   -6.1540   -1.5590 H       1  UNL1        0.0660
     35 H           7.2500   -6.3550   -1.0210 H       1  UNL1        0.0660
     36 H           3.9060   -5.1540   -0.3130 H       1  UNL1        0.0655
     37 H           2.1680   -3.6030    0.4010 H       1  UNL1        0.0626
     38 H           3.7180    0.0850    2.0070 H       1  UNL1        0.1552
     39 H           0.1050    0.5670    1.2320 H       1  UNL1        0.0655
     40 H          -1.8390    1.6490    1.4440 H       1  UNL1        0.1551
     41 H          -4.8810    3.5630    3.6760 H       1  UNL1        0.0625
     42 H          -7.1040    3.3050    2.6070 H       1  UNL1        0.0618
     43 H          -7.2910    2.7750    0.2440 H       1  UNL1        0.0636
     44 H          -7.1740    1.5520   -1.6310 H       1  UNL1        0.0428
     45 H          -7.0760    3.2560   -2.1770 H       1  UNL1        0.0428
     46 H          -6.4640    1.9330   -3.1830 H       1  UNL1        0.0428
     47 H          -4.4160    2.7300   -3.4610 H       1  UNL1        0.0428
     48 H          -3.2330    2.3960   -2.2150 H       1  UNL1        0.0428
     49 H          -4.0370    3.9940   -2.2860 H       1  UNL1        0.0428
     50 H          -2.9950    2.7610   -0.0970 H       1  UNL1        0.0643
     51 H          -0.1070    4.0280    3.7800 H       1  UNL1        0.0636
     52 H           2.2540    3.7790    4.3350 H       1  UNL1        0.0633
     53 H           4.9940   -0.3460    0.2600 H       1  UNL1        0.0663
     54 H           8.2590   -1.2300   -1.9930 H       1  UNL1        0.0660
     55 H           6.9400   -2.2920   -2.4930 H       1  UNL1        0.0660
     56 H           8.3020   -2.9190   -1.4820 H       1  UNL1        0.0660
@<TRIPOS>BOND
     1     1     2    1
     2     1    33    1
     3     1    34    1
     4     1    35    1
     5     2     3    1
     6     3     4   ar
     7     3    30   ar
     8     4     5   ar
     9     4    36    1
    10     5     6   ar
    11     5    37    1
    12     6     7    1
    13     6    29   ar
    14     7     8    2
    15     7     9   am
    16     9    10    1
    17     9    38    1
    18    10    11   ar
    19    10    27   ar
    20    11    12   ar
    21    11    39    1
    22    12    13    1
    23    12    25   ar
    24    13    14   am
    25    13    40    1
    26    14    15    2
    27    14    16    1
    28    16    17   ar
    29    16    24   ar
    30    17    18   ar
    31    17    41    1
    32    18    19   ar
    33    18    42    1
    34    19    20   ar
    35    19    43    1
    36    20    21    1
    37    20    24   ar
    38    21    22    1
    39    21    23    1
    40    22    44    1
    41    22    45    1
    42    22    46    1
    43    23    47    1
    44    23    48    1
    45    23    49    1
    46    24    50    1
    47    25    26   ar
    48    25    51    1
    49    26    27   ar
    50    26    52    1
    51    27    28    1
    52    29    30   ar
    53    29    53    1
    54    30    31    1
    55    31    32    1
    56    32    54    1
    57    32    55    1
    58    32    56    1
@<TRIPOS>MOLECULE
AD3CC00494400-I00-C00
 69 72 0 0 0
SMALL
GASTEIGER

@<TRIPOS>ATOM
      1 C           4.8960   -1.3340   -2.0100 C.3     1  UNL1       -0.0380
      2 C           3.4910   -1.4330   -1.4820 C.ar    1  UNL1       -0.0292
      3 C           2.5800   -2.2940   -2.1090 C.ar    1  UNL1       -0.0553
      4 C           1.2680   -2.4160   -1.6430 C.ar    1  UNL1       -0.0401
      5 C           0.8410   -1.6750   -0.5450 C.ar    1  UNL1        0.0354
      6 N          -0.4720   -1.7200   -0.0270 N.am    1  UNL1       -0.2814
      7 C          -1.4990   -2.5570   -0.4230 C.2     1  UNL1        0.2484
      8 O          -1.4410   -3.4640   -1.2450 O.2     1  UNL1       -0.2699
      9 C          -2.7910   -2.3290    0.2730 C.ar    1  UNL1        0.0417
     10 C          -3.2470   -1.0490    0.5640 C.ar    1  UNL1       -0.0313
     11 C          -4.4560   -0.9470    1.2160 C.ar    1  UNL1        0.0304
     12 N          -5.2090   -2.0100    1.5730 N.ar    1  UNL1       -0.2403
     13 C          -4.7870   -3.2550    1.2550 C.ar    1  UNL1        0.1221
     14 N          -5.5600   -4.3710    1.6270 N.pl3   1  UNL1       -0.3108
     15 C          -6.7410   -4.0120    2.4460 C.3     1  UNL1        0.0370
     16 C          -7.4740   -5.2890    2.8850 C.3     1  UNL1        0.0634
     17 O          -7.8670   -6.0850    1.7550 O.3     1  UNL1       -0.3767
     18 C          -6.7100   -6.4640    0.9940 C.3     1  UNL1        0.0634
     19 C          -5.9330   -5.2370    0.4860 C.3     1  UNL1        0.0370
     20 C          -3.5680   -3.4390    0.6110 C.ar    1  UNL1       -0.0096
     21 C           1.7490   -0.8110    0.0830 C.ar    1  UNL1       -0.0190
     22 C           3.0800   -0.6930   -0.3580 C.ar    1  UNL1        0.0371
     23 N           3.9900    0.2030    0.2510 N.pl3   1  UNL1       -0.2990
     24 C           3.9470    0.7480    1.5430 C.ar    1  UNL1        0.1297
     25 C           3.6920   -0.0370    2.6490 C.ar    1  UNL1       -0.0032
     26 C           3.7000    0.6010    3.8650 C.ar    1  UNL1        0.0362
     27 N           3.9390    1.9140    4.0060 N.ar    1  UNL1       -0.2032
     28 C           4.1990    2.5870    2.8780 C.ar    1  UNL1        0.3196
     29 O           4.4340    3.9320    3.0570 O.3     1  UNL1       -0.4624
     30 C           4.7870    4.6450    1.8700 C.3     1  UNL1        0.0939
     31 C           3.5320    5.1560    1.1620 C.3     1  UNL1       -0.0057
     32 C           3.8480    6.0480   -0.0430 C.3     1  UNL1        0.0014
     33 N           4.6750    5.4050   -1.0760 N.3     1  UNL1       -0.3082
     34 C           3.9650    4.3130   -1.7460 C.3     1  UNL1       -0.0130
     35 C           5.1000    6.3970   -2.0680 C.3     1  UNL1       -0.0130
     36 N           4.2130    2.0590    1.6440 N.ar    1  UNL1       -0.1799
     37 H           5.0490   -1.9900   -2.8740 H       1  UNL1        0.0278
     38 H           5.1100   -0.3100   -2.3330 H       1  UNL1        0.0278
     39 H           5.6140   -1.6310   -1.2390 H       1  UNL1        0.0278
     40 H           2.8830   -2.8830   -2.9730 H       1  UNL1        0.0621
     41 H           0.6030   -3.0930   -2.1700 H       1  UNL1        0.0636
     42 H          -0.6490   -1.1200    0.7680 H       1  UNL1        0.1551
     43 H          -2.7030   -0.1570    0.2780 H       1  UNL1        0.0640
     44 H          -4.8770    0.0200    1.4770 H       1  UNL1        0.0830
     45 H          -7.4320   -3.3940    1.8570 H       1  UNL1        0.0487
     46 H          -6.4400   -3.4580    3.3430 H       1  UNL1        0.0487
     47 H          -8.3820   -5.0260    3.4360 H       1  UNL1        0.0575
     48 H          -6.8460   -5.8970    3.5470 H       1  UNL1        0.0575
     49 H          -7.0540   -7.0630    0.1450 H       1  UNL1        0.0575
     50 H          -6.0700   -7.1030    1.6160 H       1  UNL1        0.0575
     51 H          -6.5670   -4.6710   -0.2100 H       1  UNL1        0.0487
     52 H          -5.0540   -5.5960   -0.0600 H       1  UNL1        0.0487
     53 H          -3.2010   -4.4370    0.3940 H       1  UNL1        0.0659
     54 H           1.4130   -0.2050    0.9190 H       1  UNL1        0.0655
     55 H           4.2210    0.9670   -0.3820 H       1  UNL1        0.1536
     56 H           3.5160   -1.1010    2.5700 H       1  UNL1        0.0667
     57 H           3.5140    0.0590    4.7870 H       1  UNL1        0.0832
     58 H           5.3810    5.5070    2.1990 H       1  UNL1        0.0698
     59 H           5.4460    4.0630    1.2150 H       1  UNL1        0.0698
     60 H           2.9350    5.7340    1.8810 H       1  UNL1        0.0310
     61 H           2.8860    4.3210    0.8700 H       1  UNL1        0.0310
     62 H           2.9060    6.4120   -0.4750 H       1  UNL1        0.0427
     63 H           4.3760    6.9320    0.3390 H       1  UNL1        0.0427
     64 H           4.5920    3.8680   -2.5280 H       1  UNL1        0.0391
     65 H           3.0300    4.6500   -2.2090 H       1  UNL1        0.0391
     66 H           3.7350    3.5010   -1.0490 H       1  UNL1        0.0391
     67 H           5.7560    5.9380   -2.8170 H       1  UNL1        0.0391
     68 H           4.2500    6.8540   -2.5860 H       1  UNL1        0.0391
     69 H           5.6840    7.1930   -1.5910 H       1  UNL1        0.0391
@<TRIPOS>BOND
     1     1     2    1
     2     1    37    1
     3     1    38    1
     4     1    39    1
     5     2     3   ar
     6     2    22   ar
     7     3     4   ar
     8     3    40    1
     9     4     5   ar
    10     4    41    1
    11     5     6    1
    12     5    21   ar
    13     6     7   am
    14     6    42    1
    15     7     8    2
    16     7     9    1
    17     9    10   ar
    18     9    20   ar
    19    10    11   ar
    20    10    43    1
    21    11    12   ar
    22    11    44    1
    23    12    13   ar
    24    13    14    1
    25    13    20   ar
    26    14    15    1
    27    14    19    1
    28    15    16    1
    29    15    45    1
    30    15    46    1
    31    16    17    1
    32    16    47    1
    33    16    48    1
    34    17    18    1
    35    18    19    1
    36    18    49    1
    37    18    50    1
    38    19    51    1
    39    19    52    1
    40    20    53    1
    41    21    22   ar
    42    21    54    1
    43    22    23    1
    44    23    24    1
    45    23    55    1
    46    24    25   ar
    47    24    36   ar
    48    25    26   ar
    49    25    56    1
    50    26    27   ar
    51    26    57    1
    52    27    28   ar
    53    28    29    1
    54    28    36   ar
    55    29    30    1
    56    30    31    1
    57    30    58    1
    58    30    59    1
    59    31    32    1
    60    31    60    1
    61    31    61    1
    62    32    33    1
    63    32    62    1
    64    32    63    1
    65    33    34    1
    66    33    35    1
    67    34    64    1
    68    34    65    1
    69    34    66    1
    70    35    67    1
    71    35    68    1
    72    35    69    1
@<TRIPOS>MOLECULE
AD3CC00505264-I00-C00
 28 30 0 0 0
SMALL
GASTEIGER

@<TRIPOS>ATOM
      1 O          -0.3000    3.0720    1.7780 O.3     1  UNL1       -0.4783
      2 C           0.2210    2.2210    0.9110 C.ar    1  UNL1        0.3186
      3 O           1.4900    1.8450    1.1880 O.2     1  UNL1       -0.3157
      4 N           1.9220    0.9530    0.2290 N.ar    1  UNL1       -0.0732
      5 C           0.9030    0.8070   -0.6380 C.ar    1  UNL1        0.1250
      6 C           1.0510   -0.0590   -1.8060 C.ar    1  UNL1        0.0072
      7 C           1.7220   -1.2800   -1.6940 C.ar    1  UNL1       -0.0343
      8 C           1.8370   -2.0770   -2.8200 C.ar    1  UNL1        0.0282
      9 N           1.3380   -1.7420   -4.0280 N.ar    1  UNL1       -0.2632
     10 C           0.7080   -0.5520   -4.1190 C.ar    1  UNL1        0.0282
     11 C           0.5430    0.3150   -3.0520 C.ar    1  UNL1       -0.0343
     12 C          -0.2220    1.5940   -0.2280 C.ar    1  UNL1        0.0931
     13 C          -1.5620    1.7360   -0.7670 C.ar    1  UNL1       -0.0088
     14 C          -2.3100    0.5990   -1.1090 C.ar    1  UNL1       -0.0510
     15 C          -3.5950    0.7330   -1.6390 C.ar    1  UNL1       -0.0259
     16 C          -4.1320    2.0010   -1.8240 C.ar    1  UNL1        0.1234
     17 F          -5.3640    2.1280   -2.3330 F       1  UNL1       -0.2055
     18 C          -3.4100    3.1390   -1.4860 C.ar    1  UNL1       -0.0259
     19 C          -2.1250    3.0080   -0.9560 C.ar    1  UNL1       -0.0510
     20 H           0.4030    3.2050    2.4380 H       1  UNL1        0.2954
     21 H           2.1480   -1.6090   -0.7510 H       1  UNL1        0.0639
     22 H           2.3490   -3.0340   -2.7780 H       1  UNL1        0.0830
     23 H           0.3290   -0.3040   -5.1060 H       1  UNL1        0.0830
     24 H           0.0370    1.2620   -3.2070 H       1  UNL1        0.0639
     25 H          -1.9070   -0.4000   -0.9580 H       1  UNL1        0.0625
     26 H          -4.1790   -0.1420   -1.9050 H       1  UNL1        0.0646
     27 H          -3.8520    4.1200   -1.6340 H       1  UNL1        0.0646
     28 H          -1.5690    3.9060   -0.6930 H       1  UNL1        0.0625
@<TRIPOS>BOND
     1     1     2    1
     2     1    20    1
     3     2     3   ar
     4     2    12   ar
     5     3     4   ar
     6     4     5   ar
     7     5     6    1
     8     5    12   ar
     9     6     7   ar
    10     6    11   ar
    11     7     8   ar
    12     7    21    1
    13     8     9   ar
    14     8    22    1
    15     9    10   ar
    16    10    11   ar
    17    10    23    1
    18    11    24    1
    19    12    13    1
    20    13    14   ar
    21    13    19   ar
    22    14    15   ar
    23    14    25    1
    24    15    16   ar
    25    15    26    1
    26    16    17    1
    27    16    18   ar
    28    18    19   ar
    29    18    27    1
    30    19    28    1
@<TRIPOS>MOLECULE
AD3CC00506992-I00-C00
 27 29 0 0 0
SMALL
GASTEIGER

@<TRIPOS>ATOM
      1 F           2.0900   -5.5700   -1.5810 F       1  UNL1       -0.2055
      2 C           1.4330   -4.4740   -1.1800 C.ar    1  UNL1        0.1234
      3 C           0.1250   -4.2670   -1.5980 C.ar    1  UNL1       -0.0258
      4 C          -0.5580   -3.1230   -1.1790 C.ar    1  UNL1       -0.0497
      5 C           0.0710   -2.1810   -0.3510 C.ar    1  UNL1        0.0042
      6 C          -0.6670   -1.0060    0.0730 C.ar    1  UNL1        0.1169
      7 N          -1.9980   -1.0640    0.4300 N.ar    1  UNL1       -0.2155
      8 C          -2.2780    0.1700    0.7760 C.ar    1  UNL1        0.1831
      9 O          -1.2500    1.0510    0.6610 O.2     1  UNL1       -0.4418
     10 C          -0.2070    0.2960    0.1800 C.ar    1  UNL1        0.1628
     11 C           1.0170    1.0300   -0.1040 C.ar    1  UNL1        0.0223
     12 C           1.7960    0.7280   -1.2230 C.ar    1  UNL1       -0.0329
     13 C           2.9530    1.4570   -1.4440 C.ar    1  UNL1        0.0282
     14 N           3.3770    2.4520   -0.6380 N.ar    1  UNL1       -0.2632
     15 C           2.6050    2.7390    0.4310 C.ar    1  UNL1        0.0282
     16 C           1.4330    2.0680    0.7340 C.ar    1  UNL1       -0.0329
     17 C           1.3870   -2.4180    0.0760 C.ar    1  UNL1       -0.0497
     18 C           2.0690   -3.5620   -0.3450 C.ar    1  UNL1       -0.0258
     19 H          -0.3580   -4.9960   -2.2410 H       1  UNL1        0.0646
     20 H          -1.5880   -2.9680   -1.4990 H       1  UNL1        0.0625
     21 H          -3.2170    0.5660    1.1340 H       1  UNL1        0.1255
     22 H           1.5120   -0.0490   -1.9260 H       1  UNL1        0.0640
     23 H           3.5860    1.2550   -2.3030 H       1  UNL1        0.0830
     24 H           2.9650    3.5490    1.0580 H       1  UNL1        0.0830
     25 H           0.8600    2.3500    1.6120 H       1  UNL1        0.0640
     26 H           1.8890   -1.7270    0.7480 H       1  UNL1        0.0625
     27 H           3.0880   -3.7520   -0.0200 H       1  UNL1        0.0646
@<TRIPOS>BOND
     1     1     2    1
     2     2     3   ar
     3     2    18   ar
     4     3     4   ar
     5     3    19    1
     6     4     5   ar
     7     4    20    1
     8     5     6    1
     9     5    17   ar
    10     6     7   ar
    11     6    10   ar
    12     7     8   ar
    13     8     9   ar
    14     8    21    1
    15     9    10   ar
    16    10    11    1
    17    11    12   ar
    18    11    16   ar
    19    12    13   ar
    20    12    22    1
    21    13    14   ar
    22    13    23    1
    23    14    15   ar
    24    15    16   ar
    25    15    24    1
    26    16    25    1
    27    17    18   ar
    28    17    26    1
    29    18    27    1
@<TRIPOS>MOLECULE
AD3CC00507236-I00-C00
 47 50 0 0 0
SMALL
GASTEIGER

@<TRIPOS>ATOM
      1 C           0.9430   -4.3750   -4.0340 C.3     1  UNL1       -0.0593
      2 C          -0.0030   -3.3170   -4.5800 C.3     1  UNL1       -0.0068
      3 C          -0.5140   -2.4260   -3.4920 C.ar    1  UNL1        0.0793
      4 N          -1.5570   -2.7050   -2.7430 N.ar    1  UNL1       -0.2434
      5 C          -1.7560   -1.6990   -1.8080 C.ar    1  UNL1        0.0862
      6 C          -2.8510   -1.8130   -0.8530 C.ar    1  UNL1        0.0029
      7 C          -2.6700   -1.5410    0.5110 C.ar    1  UNL1       -0.0524
      8 C          -3.7370   -1.6600    1.4050 C.ar    1  UNL1       -0.0598
      9 C          -4.9900   -2.0620    0.9440 C.ar    1  UNL1       -0.0434
     10 C          -5.1690   -2.3510   -0.4070 C.ar    1  UNL1        0.0416
     11 CL         -6.7150   -2.8540   -0.9720 Cl      1  UNL1       -0.0835
     12 C          -4.1090   -2.2340   -1.3040 C.ar    1  UNL1       -0.0342
     13 C          -0.8790   -0.6250   -1.8980 C.ar    1  UNL1        0.0471
     14 C          -0.8170    0.6450   -1.1720 C.ar    1  UNL1       -0.0045
     15 C          -1.9030    1.5190   -1.1990 C.ar    1  UNL1       -0.0352
     16 C          -1.8070    2.7020   -0.4920 C.ar    1  UNL1        0.0303
     17 N          -0.7220    3.0600    0.2270 N.ar    1  UNL1       -0.2401
     18 C           0.3220    2.2040    0.2520 C.ar    1  UNL1        0.1257
     19 N           1.3890    2.6690    1.0220 N.am    1  UNL1       -0.2663
     20 C           2.5650    2.0240    1.3240 C.2     1  UNL1        0.2493
     21 O           2.8650    0.8780    1.0090 O.2     1  UNL1       -0.2698
     22 C           3.5250    2.8130    2.1480 C.ar    1  UNL1        0.0371
     23 C           4.3590    2.1260    3.0400 C.ar    1  UNL1       -0.0496
     24 C           5.2720    2.8260    3.8300 C.ar    1  UNL1       -0.0610
     25 C           5.3630    4.2140    3.7250 C.ar    1  UNL1       -0.0617
     26 C           4.5490    4.9020    2.8260 C.ar    1  UNL1       -0.0610
     27 C           3.6330    4.2060    2.0330 C.ar    1  UNL1       -0.0496
     28 C           0.3170    0.9980   -0.4320 C.ar    1  UNL1       -0.0132
     29 S           0.2580   -0.9320   -3.1550 S.2     1  UNL1       -0.0715
     30 H           0.4490   -4.9970   -3.2800 H       1  UNL1        0.0233
     31 H           1.2870   -5.0290   -4.8410 H       1  UNL1        0.0233
     32 H           1.8230   -3.9190   -3.5680 H       1  UNL1        0.0233
     33 H           0.5040   -2.7350   -5.3580 H       1  UNL1        0.0331
     34 H          -0.8550   -3.8110   -5.0630 H       1  UNL1        0.0331
     35 H          -1.6950   -1.2490    0.8950 H       1  UNL1        0.0624
     36 H          -3.5870   -1.4460    2.4600 H       1  UNL1        0.0618
     37 H          -5.8170   -2.1560    1.6420 H       1  UNL1        0.0632
     38 H          -4.2560   -2.4720   -2.3560 H       1  UNL1        0.0639
     39 H          -2.8040    1.2910   -1.7590 H       1  UNL1        0.0639
     40 H          -2.6260    3.4160   -0.4840 H       1  UNL1        0.0830
     41 H           1.1840    3.5650    1.4400 H       1  UNL1        0.1566
     42 H           4.2970    1.0420    3.1230 H       1  UNL1        0.0625
     43 H           5.9140    2.2890    4.5240 H       1  UNL1        0.0618
     44 H           6.0770    4.7580    4.3380 H       1  UNL1        0.0618
     45 H           4.6360    5.9830    2.7340 H       1  UNL1        0.0618
     46 H           3.0360    4.7610    1.3150 H       1  UNL1        0.0625
     47 H           1.1660    0.3260   -0.4000 H       1  UNL1        0.0658
@<TRIPOS>BOND
     1     1     2    1
     2     1    30    1
     3     1    31    1
     4     1    32    1
     5     2     3    1
     6     2    33    1
     7     2    34    1
     8     3     4   ar
     9     3    29   ar
    10     4     5   ar
    11     5     6    1
    12     5    13   ar
    13     6     7   ar
    14     6    12   ar
    15     7     8   ar
    16     7    35    1
    17     8     9   ar
    18     8    36    1
    19     9    10   ar
    20     9    37    1
    21    10    11    1
    22    10    12   ar
    23    12    38    1
    24    13    14    1
    25    13    29   ar
    26    14    15   ar
    27    14    28   ar
    28    15    16   ar
    29    15    39    1
    30    16    17   ar
    31    16    40    1
    32    17    18   ar
    33    18    19    1
    34    18    28   ar
    35    19    20   am
    36    19    41    1
    37    20    21    2
    38    20    22    1
    39    22    23   ar
    40    22    27   ar
    41    23    24   ar
    42    23    42    1
    43    24    25   ar
    44    24    43    1
    45    25    26   ar
    46    25    44    1
    47    26    27   ar
    48    26    45    1
    49    27    46    1
    50    28    47    1
@<TRIPOS>MOLECULE
AD3CC00508157-I00-C00
 66 70 0 0 0
SMALL
GASTEIGER

@<TRIPOS>ATOM
      1 C           2.5670   -4.5000    1.4230 C.3     1  UNL1       -0.0639
      2 C           2.6110   -3.1110    2.0400 C.3     1  UNL1       -0.0402
      3 C           1.3250   -2.3330    1.7640 C.3     1  UNL1        0.0115
      4 N           1.4370   -1.0100    2.3560 N.pl3   1  UNL1       -0.3135
      5 C           0.2980   -0.2300    2.1880 C.ar    1  UNL1        0.2157
      6 N          -0.0870    0.4600    3.2680 N.ar    1  UNL1       -0.2229
      7 C          -1.1750    1.2390    3.1380 C.ar    1  UNL1        0.0333
      8 C          -1.8860    1.3540    1.9720 C.ar    1  UNL1       -0.0159
      9 C          -1.4110    0.6080    0.9180 C.ar    1  UNL1        0.0945
     10 C          -2.0330    0.6510   -0.3960 C.ar    1  UNL1        0.0956
     11 C          -3.3610    0.6460   -0.8370 C.ar    1  UNL1        0.0985
     12 C          -4.5490    0.4520   -0.0220 C.ar    1  UNL1        0.0027
     13 C          -5.6750    1.2560   -0.2470 C.ar    1  UNL1       -0.0498
     14 C          -6.8300    1.0900    0.5200 C.ar    1  UNL1       -0.0258
     15 C          -6.8600    0.1110    1.5060 C.ar    1  UNL1        0.1234
     16 F          -7.9660   -0.0500    2.2440 F       1  UNL1       -0.2055
     17 C          -5.7610   -0.7090    1.7330 C.ar    1  UNL1       -0.0258
     18 C          -4.6050   -0.5440    0.9660 C.ar    1  UNL1       -0.0498
     19 N          -3.4530    0.9110   -2.1980 N.ar    1  UNL1       -0.2316
     20 C          -2.2120    1.0160   -2.5850 C.ar    1  UNL1        0.1112
     21 N          -1.3450    0.7920   -1.5600 N.ar    1  UNL1       -0.3205
     22 C           0.0490    0.9710   -1.9460 C.3     1  UNL1        0.0599
     23 C           0.7530   -0.3730   -2.1540 C.3     1  UNL1        0.0689
     24 O           2.1040   -0.2280   -2.6030 O.3     1  UNL1       -0.3732
     25 C           3.0560   -0.0830   -1.5450 C.3     1  UNL1        0.0728
     26 C           3.2260    1.3570   -1.1360 C.ar    1  UNL1       -0.0217
     27 C           3.4770    2.3470   -2.0930 C.ar    1  UNL1       -0.0529
     28 C           3.6290    3.6800   -1.7060 C.ar    1  UNL1       -0.0196
     29 C           3.5410    4.0470   -0.3620 C.ar    1  UNL1        0.1201
     30 O           3.7050    5.3830   -0.1210 O.3     1  UNL1       -0.4951
     31 C           3.6640    5.7980    1.2390 C.3     1  UNL1        0.0788
     32 C           3.3020    3.0630    0.5980 C.ar    1  UNL1       -0.0196
     33 C           3.1510    1.7260    0.2130 C.ar    1  UNL1       -0.0529
     34 C          -0.1060    1.7610   -3.2740 C.3     1  UNL1       -0.0231
     35 C          -1.5010    1.3740   -3.8270 C.3     1  UNL1        0.0076
     36 N          -0.3250   -0.1830    1.0040 N.ar    1  UNL1       -0.2130
     37 H           2.4560   -4.4420    0.3360 H       1  UNL1        0.0230
     38 H           1.7300   -5.0810    1.8240 H       1  UNL1        0.0230
     39 H           3.4930   -5.0410    1.6420 H       1  UNL1        0.0230
     40 H           2.7700   -3.1990    3.1210 H       1  UNL1        0.0278
     41 H           3.4720   -2.5630    1.6370 H       1  UNL1        0.0278
     42 H           0.4700   -2.8720    2.1910 H       1  UNL1        0.0462
     43 H           1.1790   -2.2660    0.6800 H       1  UNL1        0.0462
     44 H           1.5860   -1.0210    3.3610 H       1  UNL1        0.1489
     45 H          -1.4630    1.7900    4.0280 H       1  UNL1        0.0831
     46 H          -2.7480    2.0010    1.8920 H       1  UNL1        0.0655
     47 H          -5.6530    2.0130   -1.0300 H       1  UNL1        0.0625
     48 H          -7.7030    1.7100    0.3490 H       1  UNL1        0.0646
     49 H          -5.8130   -1.4780    2.4980 H       1  UNL1        0.0646
     50 H          -3.7610   -1.2090    1.1330 H       1  UNL1        0.0625
     51 H           0.5350    1.5920   -1.1900 H       1  UNL1        0.0551
     52 H           0.7110   -1.0040   -1.2610 H       1  UNL1        0.0580
     53 H           0.2330   -0.9410   -2.9350 H       1  UNL1        0.0580
     54 H           2.7970   -0.7270   -0.6970 H       1  UNL1        0.0610
     55 H           4.0200   -0.4400   -1.9260 H       1  UNL1        0.0610
     56 H           3.5470    2.0830   -3.1460 H       1  UNL1        0.0622
     57 H           3.8180    4.4410   -2.4600 H       1  UNL1        0.0654
     58 H           2.6830    5.5970    1.6830 H       1  UNL1        0.0660
     59 H           4.4660    5.3310    1.8190 H       1  UNL1        0.0660
     60 H           3.8230    6.8800    1.2620 H       1  UNL1        0.0660
     61 H           3.2250    3.2970    1.6540 H       1  UNL1        0.0654
     62 H           2.9640    0.9760    0.9780 H       1  UNL1        0.0622
     63 H          -0.1020    2.8360   -3.0490 H       1  UNL1        0.0290
     64 H           0.6930    1.5770   -3.9980 H       1  UNL1        0.0290
     65 H          -1.9670    2.2090   -4.3570 H       1  UNL1        0.0344
     66 H          -1.4310    0.5100   -4.4940 H       1  UNL1        0.0344
@<TRIPOS>BOND
     1     1     2    1
     2     1    37    1
     3     1    38    1
     4     1    39    1
     5     2     3    1
     6     2    40    1
     7     2    41    1
     8     3     4    1
     9     3    42    1
    10     3    43    1
    11     4     5    1
    12     4    44    1
    13     5     6   ar
    14     5    36   ar
    15     6     7   ar
    16     7     8   ar
    17     7    45    1
    18     8     9   ar
    19     8    46    1
    20     9    10    1
    21     9    36   ar
    22    10    11   ar
    23    10    21   ar
    24    11    12    1
    25    11    19   ar
    26    12    13   ar
    27    12    18   ar
    28    13    14   ar
    29    13    47    1
    30    14    15   ar
    31    14    48    1
    32    15    16    1
    33    15    17   ar
    34    17    18   ar
    35    17    49    1
    36    18    50    1
    37    19    20   ar
    38    20    21   ar
    39    20    35    1
    40    21    22    1
    41    22    23    1
    42    22    34    1
    43    22    51    1
    44    23    24    1
    45    23    52    1
    46    23    53    1
    47    24    25    1
    48    25    26    1
    49    25    54    1
    50    25    55    1
    51    26    27   ar
    52    26    33   ar
    53    27    28   ar
    54    27    56    1
    55    28    29   ar
    56    28    57    1
    57    29    30    1
    58    29    32   ar
    59    30    31    1
    60    31    58    1
    61    31    59    1
    62    31    60    1
    63    32    33   ar
    64    32    61    1
    65    33    62    1
    66    34    35    1
    67    34    63    1
    68    34    64    1
    69    35    65    1
    70    35    66    1
@<TRIPOS>MOLECULE
AD3CC00509843-I00-C03
 64 68 0 0 0
SMALL
GASTEIGER

@<TRIPOS>ATOM
      1 O          -0.8390   -0.1120   -4.8360 O.2     1  UNL1       -0.1379
      2 S          -1.7390   -0.8080   -3.9470 S.O2    1  UNL1        0.1117
      3 O          -3.1480   -0.9040   -4.2490 O.2     1  UNL1       -0.1379
      4 N          -1.1750   -2.3860   -3.7360 N.pl3   1  UNL1       -0.2063
      5 C           0.2380   -2.5340   -3.5420 C.ar    1  UNL1        0.0525
      6 C           1.0750   -2.7380   -4.6450 C.ar    1  UNL1       -0.0391
      7 C           2.4550   -2.8660   -4.4630 C.ar    1  UNL1       -0.0565
      8 C           2.9990   -2.7710   -3.1840 C.ar    1  UNL1       -0.0192
      9 C           2.1610   -2.5240   -2.0950 C.ar    1  UNL1        0.1302
     10 O           2.7070   -2.4590   -0.8380 O.3     1  UNL1       -0.4560
     11 C           2.8480   -1.2120   -0.2650 C.ar    1  UNL1        0.1284
     12 C           2.9100   -0.0070   -0.9720 C.ar    1  UNL1       -0.0193
     13 C           3.1160    1.1950   -0.2890 C.ar    1  UNL1       -0.0583
     14 C           3.2620    1.1950    1.0980 C.ar    1  UNL1       -0.0615
     15 C           3.1940   -0.0030    1.8070 C.ar    1  UNL1       -0.0583
     16 C           2.9940   -1.2050    1.1250 C.ar    1  UNL1       -0.0193
     17 C           0.7810   -2.4190   -2.2650 C.ar    1  UNL1        0.0031
     18 N          -1.5810   -0.1730   -2.3840 N.3     1  UNL1       -0.1637
     19 C          -2.4710   -0.8040   -1.3690 C.3     1  UNL1        0.0232
     20 C          -2.0230   -0.3750    0.0260 C.3     1  UNL1       -0.0230
     21 C          -2.0600    1.1540    0.1500 C.3     1  UNL1        0.0103
     22 N          -1.7260    1.6250    1.5020 N.3     1  UNL1       -0.3092
     23 C          -0.3610    1.3450    1.9460 C.3     1  UNL1        0.0221
     24 C          -0.1200    1.8900    3.3430 C.ar    1  UNL1       -0.0259
     25 C           0.5930    3.0980    3.4650 C.ar    1  UNL1       -0.0568
     26 C           0.8650    3.6430    4.7150 C.ar    1  UNL1       -0.0609
     27 C           0.4260    2.9910    5.8640 C.ar    1  UNL1       -0.0540
     28 C          -0.2980    1.7920    5.7820 C.ar    1  UNL1       -0.0176
     29 C          -0.7370    1.1540    6.9540 C.ar    1  UNL1       -0.0540
     30 C          -1.4670   -0.0320    6.8980 C.ar    1  UNL1       -0.0612
     31 C          -1.7710   -0.5940    5.6650 C.ar    1  UNL1       -0.0612
     32 C          -1.3380    0.0280    4.4910 C.ar    1  UNL1       -0.0537
     33 C          -0.5890    1.2270    4.5140 C.ar    1  UNL1       -0.0135
     34 C          -1.2280    1.8060   -0.9640 C.3     1  UNL1       -0.0230
     35 C          -1.6780    1.3100   -2.3370 C.3     1  UNL1        0.0232
     36 H          -1.5130   -2.9270   -4.5320 H       1  UNL1        0.1747
     37 H           0.6650   -2.7930   -5.6500 H       1  UNL1        0.0636
     38 H           3.1050   -3.0330   -5.3200 H       1  UNL1        0.0619
     39 H           4.0710   -2.8740   -3.0340 H       1  UNL1        0.0654
     40 H           2.8150    0.0200   -2.0550 H       1  UNL1        0.0654
     41 H           3.1710    2.1290   -0.8440 H       1  UNL1        0.0619
     42 H           3.4290    2.1290    1.6280 H       1  UNL1        0.0618
     43 H           3.3030   -0.0040    2.8900 H       1  UNL1        0.0619
     44 H           2.9560   -2.1390    1.6800 H       1  UNL1        0.0654
     45 H           0.1430   -2.2620   -1.4020 H       1  UNL1        0.0673
     46 H          -2.4100   -1.8960   -1.4290 H       1  UNL1        0.0445
     47 H          -3.5130   -0.5110   -1.5420 H       1  UNL1        0.0445
     48 H          -1.0080   -0.7540    0.2020 H       1  UNL1        0.0293
     49 H          -2.6790   -0.8350    0.7770 H       1  UNL1        0.0293
     50 H          -3.1050    1.4590   -0.0090 H       1  UNL1        0.0461
     51 H          -1.8800    2.6310    1.5650 H       1  UNL1        0.1225
     52 H          -0.1380    0.2730    1.9460 H       1  UNL1        0.0474
     53 H           0.3600    1.8080    1.2650 H       1  UNL1        0.0474
     54 H           0.9450    3.6190    2.5770 H       1  UNL1        0.0621
     55 H           1.4190    4.5750    4.7960 H       1  UNL1        0.0618
     56 H           0.6490    3.4320    6.8340 H       1  UNL1        0.0624
     57 H          -0.5140    1.5830    7.9300 H       1  UNL1        0.0624
     58 H          -1.8020   -0.5080    7.8150 H       1  UNL1        0.0618
     59 H          -2.3490   -1.5130    5.6090 H       1  UNL1        0.0618
     60 H          -1.6100   -0.4340    3.5440 H       1  UNL1        0.0624
     61 H          -0.1640    1.5670   -0.8440 H       1  UNL1        0.0293
     62 H          -1.3240    2.8980   -0.9200 H       1  UNL1        0.0293
     63 H          -1.0190    1.7560   -3.0900 H       1  UNL1        0.0445
     64 H          -2.7050    1.6310   -2.5450 H       1  UNL1        0.0445
@<TRIPOS>BOND
     1     1     2    2
     2     2     3    2
     3     2     4    1
     4     2    18    1
     5     4     5    1
     6     4    36    1
     7     5     6   ar
     8     5    17   ar
     9     6     7   ar
    10     6    37    1
    11     7     8   ar
    12     7    38    1
    13     8     9   ar
    14     8    39    1
    15     9    10    1
    16     9    17   ar
    17    10    11    1
    18    11    12   ar
    19    11    16   ar
    20    12    13   ar
    21    12    40    1
    22    13    14   ar
    23    13    41    1
    24    14    15   ar
    25    14    42    1
    26    15    16   ar
    27    15    43    1
    28    16    44    1
    29    17    45    1
    30    18    19    1
    31    18    35    1
    32    19    20    1
    33    19    46    1
    34    19    47    1
    35    20    21    1
    36    20    48    1
    37    20    49    1
    38    21    22    1
    39    21    34    1
    40    21    50    1
    41    22    23    1
    42    22    51    1
    43    23    24    1
    44    23    52    1
    45    23    53    1
    46    24    25   ar
    47    24    33   ar
    48    25    26   ar
    49    25    54    1
    50    26    27   ar
    51    26    55    1
    52    27    28   ar
    53    27    56    1
    54    28    29   ar
    55    28    33   ar
    56    29    30   ar
    57    29    57    1
    58    30    31   ar
    59    30    58    1
    60    31    32   ar
    61    31    59    1
    62    32    33   ar
    63    32    60    1
    64    34    35    1
    65    34    61    1
    66    34    62    1
    67    35    63    1
    68    35    64    1
@<TRIPOS>MOLECULE
AD3CC00509933-I00-C01
 59 62 0 0 0
SMALL
GASTEIGER

@<TRIPOS>ATOM
      1 O          -1.6770    3.1960    2.5940 O.2     1  UNL1       -0.1379
      2 S          -0.6870    2.4650    3.3500 S.O2    1  UNL1        0.1117
      3 O           0.1770    3.1490    4.2830 O.2     1  UNL1       -0.1379
      4 N          -1.4650    1.2310    4.1930 N.pl3   1  UNL1       -0.2063
      5 C          -2.1320    0.2060    3.4460 C.ar    1  UNL1        0.0525
      6 C          -1.8710   -1.1160    3.8170 C.ar    1  UNL1       -0.0391
      7 C          -2.5230   -2.1710    3.1760 C.ar    1  UNL1       -0.0565
      8 C          -3.4470   -1.9050    2.1680 C.ar    1  UNL1       -0.0192
      9 C          -3.7180   -0.5850    1.8080 C.ar    1  UNL1        0.1303
     10 O          -4.6560   -0.3890    0.8170 O.3     1  UNL1       -0.4545
     11 C          -4.3460    0.5550   -0.1390 C.ar    1  UNL1        0.1467
     12 C          -3.1870    0.4270   -0.9150 C.ar    1  UNL1       -0.0179
     13 C          -2.8970    1.3760   -1.8960 C.ar    1  UNL1       -0.0582
     14 C          -3.7680    2.4430   -2.1140 C.ar    1  UNL1       -0.0602
     15 C          -4.9350    2.5600   -1.3560 C.ar    1  UNL1       -0.0398
     16 C          -5.2300    1.6120   -0.3740 C.ar    1  UNL1        0.0831
     17 CL         -6.6810    1.7910    0.5410 Cl      1  UNL1       -0.0797
     18 C          -3.0970    0.4740    2.4780 C.ar    1  UNL1        0.0031
     19 N           0.2810    1.5810    2.2790 N.3     1  UNL1       -0.1637
     20 C           1.3790    0.8080    2.9160 C.3     1  UNL1        0.0232
     21 C           1.9090   -0.2120    1.9110 C.3     1  UNL1       -0.0230
     22 C           2.3920    0.4930    0.6350 C.3     1  UNL1        0.0103
     23 N           2.9930   -0.4210   -0.3530 N.3     1  UNL1       -0.3091
     24 C           2.0950   -1.4680   -0.8670 C.3     1  UNL1        0.0249
     25 C           2.8150   -2.3890   -1.8300 C.ar    1  UNL1        0.0078
     26 C           2.1220   -2.8960   -2.9420 C.ar    1  UNL1       -0.0539
     27 C           2.7360   -3.7950   -3.8200 C.ar    1  UNL1       -0.0612
     28 C           4.0470   -4.2080   -3.5940 C.ar    1  UNL1       -0.0583
     29 C           4.7450   -3.7270   -2.4890 C.ar    1  UNL1       -0.0199
     30 C           4.1310   -2.8290   -1.6200 C.ar    1  UNL1        0.1212
     31 O           4.8740   -2.3880   -0.5590 O.3     1  UNL1       -0.5065
     32 C           1.2850    1.3850    0.0520 C.3     1  UNL1       -0.0230
     33 C           0.7630    2.3570    1.1110 C.3     1  UNL1        0.0232
     34 H          -2.0810    1.6640    4.8830 H       1  UNL1        0.1747
     35 H          -1.1530   -1.3290    4.6040 H       1  UNL1        0.0636
     36 H          -2.3120   -3.1980    3.4650 H       1  UNL1        0.0619
     37 H          -3.9570   -2.7230    1.6640 H       1  UNL1        0.0654
     38 H          -2.5110   -0.4080   -0.7570 H       1  UNL1        0.0655
     39 H          -1.9940    1.2820   -2.4940 H       1  UNL1        0.0619
     40 H          -3.5420    3.1840   -2.8770 H       1  UNL1        0.0618
     41 H          -5.6100    3.3930   -1.5350 H       1  UNL1        0.0633
     42 H          -3.3700    1.4950    2.2330 H       1  UNL1        0.0673
     43 H           1.0170    0.2710    3.7980 H       1  UNL1        0.0445
     44 H           2.1810    1.4830    3.2370 H       1  UNL1        0.0445
     45 H           1.1050   -0.9220    1.6830 H       1  UNL1        0.0293
     46 H           2.7300   -0.7810    2.3650 H       1  UNL1        0.0293
     47 H           3.2120    1.1600    0.9360 H       1  UNL1        0.0461
     48 H           3.3040    0.1310   -1.1580 H       1  UNL1        0.1225
     49 H           1.7140   -2.0970   -0.0550 H       1  UNL1        0.0475
     50 H           1.2440   -1.0090   -1.3790 H       1  UNL1        0.0475
     51 H           1.0930   -2.6010   -3.1320 H       1  UNL1        0.0622
     52 H           2.1900   -4.1780   -4.6780 H       1  UNL1        0.0618
     53 H           4.5250   -4.9090   -4.2730 H       1  UNL1        0.0619
     54 H           5.7680   -4.0450   -2.3060 H       1  UNL1        0.0654
     55 H           4.3780   -1.6320   -0.1740 H       1  UNL1        0.2921
     56 H           1.6650    1.9510   -0.8060 H       1  UNL1        0.0293
     57 H           0.4470    0.7740   -0.3050 H       1  UNL1        0.0293
     58 H          -0.0560    2.9320    0.6660 H       1  UNL1        0.0445
     59 H           1.5480    3.0570    1.4170 H       1  UNL1        0.0445
@<TRIPOS>BOND
     1     1     2    2
     2     2     3    2
     3     2     4    1
     4     2    19    1
     5     4     5    1
     6     4    34    1
     7     5     6   ar
     8     5    18   ar
     9     6     7   ar
    10     6    35    1
    11     7     8   ar
    12     7    36    1
    13     8     9   ar
    14     8    37    1
    15     9    10    1
    16     9    18   ar
    17    10    11    1
    18    11    12   ar
    19    11    16   ar
    20    12    13   ar
    21    12    38    1
    22    13    14   ar
    23    13    39    1
    24    14    15   ar
    25    14    40    1
    26    15    16   ar
    27    15    41    1
    28    16    17    1
    29    18    42    1
    30    19    20    1
    31    19    33    1
    32    20    21    1
    33    20    43    1
    34    20    44    1
    35    21    22    1
    36    21    45    1
    37    21    46    1
    38    22    23    1
    39    22    32    1
    40    22    47    1
    41    23    24    1
    42    23    48    1
    43    24    25    1
    44    24    49    1
    45    24    50    1
    46    25    26   ar
    47    25    30   ar
    48    26    27   ar
    49    26    51    1
    50    27    28   ar
    51    27    52    1
    52    28    29   ar
    53    28    53    1
    54    29    30   ar
    55    29    54    1
    56    30    31    1
    57    31    55    1
    58    32    33    1
    59    32    56    1
    60    32    57    1
    61    33    58    1
    62    33    59    1
@<TRIPOS>MOLECULE
AD3CC00515494-I00-C00
 33 35 0 0 0
SMALL
GASTEIGER

@<TRIPOS>ATOM
      1 N           1.8850   -1.3790   -1.4660 N.pl3   1  UNL1       -0.3425
      2 C           0.9180   -0.5030   -1.0840 C.ar    1  UNL1        0.1308
      3 C           0.9200    0.8700   -1.2800 C.ar    1  UNL1        0.0814
      4 C           1.9200    1.6250   -2.0210 C.2     1  UNL1        0.1979
      5 O           2.6590    1.1020   -2.8540 O.2     1  UNL1       -0.2865
      6 C           2.0470    3.0860   -1.7880 C.ar    1  UNL1        0.0224
      7 C           2.0460    3.6250   -0.4950 C.ar    1  UNL1       -0.0509
      8 C           2.1790    5.0030   -0.3180 C.ar    1  UNL1       -0.0611
      9 C           2.3250    5.8400   -1.4240 C.ar    1  UNL1       -0.0617
     10 C           2.3500    5.3030   -2.7120 C.ar    1  UNL1       -0.0611
     11 C           2.2180    3.9260   -2.8950 C.ar    1  UNL1       -0.0509
     12 C          -0.2410    1.3130   -0.6270 C.ar    1  UNL1        0.0625
     13 N          -0.9150    0.3360   -0.0310 N.ar    1  UNL1       -0.1723
     14 N          -0.2430   -0.8140   -0.3560 N.ar    1  UNL1       -0.2154
     15 C          -0.7850   -2.0580    0.0910 C.ar    1  UNL1        0.1025
     16 C          -1.7970   -2.0340    1.0740 C.ar    1  UNL1       -0.0334
     17 C          -2.3590   -3.2180    1.5620 C.ar    1  UNL1       -0.0596
     18 C          -1.9300   -4.4460    1.0710 C.ar    1  UNL1       -0.0589
     19 C          -0.9490   -4.4840    0.0840 C.ar    1  UNL1       -0.0243
     20 C          -0.3870   -3.3000   -0.4040 C.ar    1  UNL1        0.1487
     21 F           0.4910   -3.4320   -1.4050 F       1  UNL1       -0.2033
     22 H           2.5510   -1.0540   -2.1740 H       1  UNL1        0.1437
     23 H           1.6630   -2.3650   -1.5980 H       1  UNL1        0.1437
     24 H           1.9650    2.9840    0.3800 H       1  UNL1        0.0625
     25 H           2.1790    5.4250    0.6850 H       1  UNL1        0.0618
     26 H           2.4320    6.9130   -1.2830 H       1  UNL1        0.0618
     27 H           2.4790    5.9560   -3.5720 H       1  UNL1        0.0618
     28 H           2.2500    3.5090   -3.9000 H       1  UNL1        0.0625
     29 H          -0.6300    2.3210   -0.5490 H       1  UNL1        0.0856
     30 H          -2.1530   -1.0910    1.4860 H       1  UNL1        0.0640
     31 H          -3.1320   -3.1750    2.3260 H       1  UNL1        0.0618
     32 H          -2.3660   -5.3680    1.4450 H       1  UNL1        0.0618
     33 H          -0.6210   -5.4350   -0.3260 H       1  UNL1        0.0647
@<TRIPOS>BOND
     1     1     2    1
     2     1    22    1
     3     1    23    1
     4     2     3   ar
     5     2    14   ar
     6     3     4    1
     7     3    12   ar
     8     4     5    2
     9     4     6    1
    10     6     7   ar
    11     6    11   ar
    12     7     8   ar
    13     7    24    1
    14     8     9   ar
    15     8    25    1
    16     9    10   ar
    17     9    26    1
    18    10    11   ar
    19    10    27    1
    20    11    28    1
    21    12    13   ar
    22    12    29    1
    23    13    14   ar
    24    14    15    1
    25    15    16   ar
    26    15    20   ar
    27    16    17   ar
    28    16    30    1
    29    17    18   ar
    30    17    31    1
    31    18    19   ar
    32    18    32    1
    33    19    20   ar
    34    19    33    1
    35    20    21    1
@<TRIPOS>MOLECULE
AD3CC00515527-I00-C00
 41 43 0 0 0
SMALL
GASTEIGER

@<TRIPOS>ATOM
      1 N          -4.9230    3.2410    0.7910 N.3     1  UNL1       -0.3297
      2 C          -4.4200    2.2310   -0.1400 C.3     1  UNL1       -0.0029
      3 C          -4.0970    0.8990    0.5520 C.3     1  UNL1       -0.0153
      4 C          -2.9120    0.9760    1.4890 C.ar    1  UNL1       -0.0455
      5 C          -3.1090    1.1170    2.8700 C.ar    1  UNL1       -0.0585
      6 C          -2.0210    1.2230    3.7370 C.ar    1  UNL1       -0.0608
      7 C          -0.7210    1.1790    3.2350 C.ar    1  UNL1       -0.0509
      8 C          -0.5090    1.0160    1.8610 C.ar    1  UNL1        0.0227
      9 C           0.8880    0.9820    1.3600 C.2     1  UNL1        0.1979
     10 O           1.7020    1.7680    1.8410 O.2     1  UNL1       -0.2865
     11 C           1.2530    0.0160    0.3350 C.ar    1  UNL1        0.0814
     12 C           0.6450   -1.2060   -0.0110 C.ar    1  UNL1        0.0625
     13 N           1.2880   -1.8590   -0.9750 N.ar    1  UNL1       -0.1723
     14 N           2.3140   -1.0330   -1.3320 N.ar    1  UNL1       -0.2182
     15 C           3.1200   -1.3680   -2.4640 C.ar    1  UNL1        0.0676
     16 C           3.9520   -0.4260   -3.0860 C.ar    1  UNL1       -0.0335
     17 C           4.7210   -0.7920   -4.1950 C.ar    1  UNL1       -0.0244
     18 C           4.6520   -2.0900   -4.6870 C.ar    1  UNL1        0.1235
     19 F           5.3900   -2.4330   -5.7510 F       1  UNL1       -0.2055
     20 C           3.8190   -3.0310   -4.0990 C.ar    1  UNL1       -0.0244
     21 C           3.0460   -2.6710   -2.9920 C.ar    1  UNL1       -0.0335
     22 C           2.3790    0.0720   -0.4710 C.ar    1  UNL1        0.1307
     23 N           3.3870    0.9910   -0.4380 N.pl3   1  UNL1       -0.3425
     24 C          -1.6030    0.9350    0.9880 C.ar    1  UNL1       -0.0477
     25 H          -4.2020    3.4440    1.4850 H       1  UNL1        0.1182
     26 H          -5.0790    4.1140    0.2870 H       1  UNL1        0.1182
     27 H          -3.5360    2.6230   -0.6550 H       1  UNL1        0.0425
     28 H          -5.1890    2.0550   -0.9000 H       1  UNL1        0.0425
     29 H          -4.9780    0.5320    1.0930 H       1  UNL1        0.0325
     30 H          -3.8840    0.1410   -0.2130 H       1  UNL1        0.0325
     31 H          -4.1190    1.1620    3.2760 H       1  UNL1        0.0620
     32 H          -2.1870    1.3460    4.8050 H       1  UNL1        0.0618
     33 H           0.1240    1.2720    3.9140 H       1  UNL1        0.0625
     34 H          -0.2360   -1.6670    0.4190 H       1  UNL1        0.0856
     35 H           3.9890    0.6110   -2.7670 H       1  UNL1        0.0640
     36 H           5.3630   -0.0670   -4.6870 H       1  UNL1        0.0647
     37 H           3.7710   -4.0380   -4.5030 H       1  UNL1        0.0647
     38 H           2.3980   -3.4220   -2.5420 H       1  UNL1        0.0640
     39 H           4.3410    0.6580   -0.5790 H       1  UNL1        0.1437
     40 H           3.3660    1.6330    0.3640 H       1  UNL1        0.1437
     41 H          -1.4450    0.8580   -0.0860 H       1  UNL1        0.0627
@<TRIPOS>BOND
     1     1     2    1
     2     1    25    1
     3     1    26    1
     4     2     3    1
     5     2    27    1
     6     2    28    1
     7     3     4    1
     8     3    29    1
     9     3    30    1
    10     4     5   ar
    11     4    24   ar
    12     5     6   ar
    13     5    31    1
    14     6     7   ar
    15     6    32    1
    16     7     8   ar
    17     7    33    1
    18     8     9    1
    19     8    24   ar
    20     9    10    2
    21     9    11    1
    22    11    12   ar
    23    11    22   ar
    24    12    13   ar
    25    12    34    1
    26    13    14   ar
    27    14    15    1
    28    14    22   ar
    29    15    16   ar
    30    15    21   ar
    31    16    17   ar
    32    16    35    1
    33    17    18   ar
    34    17    36    1
    35    18    19    1
    36    18    20   ar
    37    20    21   ar
    38    20    37    1
    39    21    38    1
    40    22    23    1
    41    23    39    1
    42    23    40    1
    43    24    41    1
@<TRIPOS>MOLECULE
AD3CC00515559-I00-C01
 45 47 0 0 0
SMALL
GASTEIGER

@<TRIPOS>ATOM
      1 N          -2.1780    3.4560   -1.2100 N.pl3   1  UNL1       -0.3425
      2 C          -0.9820    2.8180   -1.3610 C.ar    1  UNL1        0.1307
      3 C          -0.6840    1.4910   -1.0880 C.ar    1  UNL1        0.0814
      4 C          -1.5990    0.5140   -0.5160 C.2     1  UNL1        0.1981
      5 O          -2.7060    0.8160   -0.0730 O.2     1  UNL1       -0.2865
      6 C          -1.1950   -0.9090   -0.4540 C.ar    1  UNL1        0.0259
      7 C          -0.7600   -1.5910   -1.5950 C.ar    1  UNL1       -0.0507
      8 C          -0.4050   -2.9360   -1.4960 C.ar    1  UNL1       -0.0576
      9 C          -0.4980   -3.6020   -0.2690 C.ar    1  UNL1       -0.0199
     10 C          -0.9570   -2.9300    0.8650 C.ar    1  UNL1        0.1213
     11 O          -1.1020   -3.4670    2.1140 O.3     1  UNL1       -0.4893
     12 C          -0.8320   -4.8670    2.2600 C.3     1  UNL1        0.1175
     13 C          -1.1070   -5.2360    3.7190 C.3     1  UNL1        0.1120
     14 O          -0.2010   -4.5240    4.5830 O.3     1  UNL1       -0.3861
     15 C          -0.9100   -6.7310    3.9670 C.3     1  UNL1        0.0733
     16 O          -1.1620   -7.0210    5.3410 O.3     1  UNL1       -0.3923
     17 C          -1.3110   -1.5830    0.7670 C.ar    1  UNL1       -0.0091
     18 C           0.6530    1.3500   -1.5060 C.ar    1  UNL1        0.0625
     19 N           1.1560    2.4570   -2.0450 N.ar    1  UNL1       -0.1723
     20 N           0.1890    3.4030   -1.8640 N.ar    1  UNL1       -0.2182
     21 C           0.4820    4.7680   -2.1710 C.ar    1  UNL1        0.0676
     22 C           1.6250    5.0650   -2.9380 C.ar    1  UNL1       -0.0335
     23 C           1.9410    6.3880   -3.2560 C.ar    1  UNL1       -0.0244
     24 C           1.1270    7.4150   -2.7990 C.ar    1  UNL1        0.1235
     25 F           1.4300    8.6840   -3.1010 F       1  UNL1       -0.2055
     26 C           0.0070    7.1450   -2.0210 C.ar    1  UNL1       -0.0244
     27 C          -0.3150    5.8220   -1.7010 C.ar    1  UNL1       -0.0335
     28 H          -2.4780    4.1140   -1.9280 H       1  UNL1        0.1437
     29 H          -2.9650    2.8710   -0.9050 H       1  UNL1        0.1437
     30 H          -0.7110   -1.0950   -2.5610 H       1  UNL1        0.0625
     31 H          -0.0630   -3.4730   -2.3780 H       1  UNL1        0.0619
     32 H          -0.2090   -4.6480   -0.2380 H       1  UNL1        0.0654
     33 H           0.2220   -5.0570    2.0250 H       1  UNL1        0.0723
     34 H          -1.4880   -5.4480    1.6010 H       1  UNL1        0.0723
     35 H          -2.1150   -4.9290    4.0180 H       1  UNL1        0.0650
     36 H          -0.2840   -3.5830    4.3340 H       1  UNL1        0.2100
     37 H           0.1200   -7.0350    3.7540 H       1  UNL1        0.0584
     38 H          -1.5920   -7.3310    3.3570 H       1  UNL1        0.0584
     39 H          -0.6820   -6.3280    5.8390 H       1  UNL1        0.2095
     40 H          -1.6810   -1.0560    1.6450 H       1  UNL1        0.0661
     41 H           1.2870    0.4740   -1.4660 H       1  UNL1        0.0856
     42 H           2.2750    4.2710   -3.3040 H       1  UNL1        0.0640
     43 H           2.8170    6.6190   -3.8530 H       1  UNL1        0.0647
     44 H          -0.6000    7.9660   -1.6540 H       1  UNL1        0.0647
     45 H          -1.1620    5.6550   -1.0420 H       1  UNL1        0.0640
@<TRIPOS>BOND
     1     1     2    1
     2     1    28    1
     3     1    29    1
     4     2     3   ar
     5     2    20   ar
     6     3     4    1
     7     3    18   ar
     8     4     5    2
     9     4     6    1
    10     6     7   ar
    11     6    17   ar
    12     7     8   ar
    13     7    30    1
    14     8     9   ar
    15     8    31    1
    16     9    10   ar
    17     9    32    1
    18    10    11    1
    19    10    17   ar
    20    11    12    1
    21    12    13    1
    22    12    33    1
    23    12    34    1
    24    13    14    1
    25    13    15    1
    26    13    35    1
    27    14    36    1
    28    15    16    1
    29    15    37    1
    30    15    38    1
    31    16    39    1
    32    17    40    1
    33    18    19   ar
    34    18    41    1
    35    19    20   ar
    36    20    21    1
    37    21    22   ar
    38    21    27   ar
    39    22    23   ar
    40    22    42    1
    41    23    24   ar
    42    23    43    1
    43    24    25    1
    44    24    26   ar
    45    26    27   ar
    46    26    44    1
    47    27    45    1
@<TRIPOS>MOLECULE
AD3CC00515569-I00-C00
 55 58 0 0 0
SMALL
GASTEIGER

@<TRIPOS>ATOM
      1 N           1.7950   -4.9620   -1.3660 N.pl3   1  UNL1       -0.3425
      2 C           1.8590   -3.8970   -2.2170 C.ar    1  UNL1        0.1307
      3 C           1.6800   -2.5560   -1.9170 C.ar    1  UNL1        0.0814
      4 C           1.4400   -2.0030   -0.5930 C.2     1  UNL1        0.1981
      5 O           1.0340   -2.6910    0.3420 O.2     1  UNL1       -0.2865
      6 C           1.6650   -0.5540   -0.3560 C.ar    1  UNL1        0.0259
      7 C           2.7840    0.1080   -0.8770 C.ar    1  UNL1       -0.0507
      8 C           2.9600    1.4670   -0.6230 C.ar    1  UNL1       -0.0576
      9 C           2.0300    2.1540    0.1590 C.ar    1  UNL1       -0.0199
     10 C           0.9240    1.4950    0.7030 C.ar    1  UNL1        0.1212
     11 O           0.1070    2.2870    1.4590 O.3     1  UNL1       -0.4907
     12 C          -1.0470    1.6780    2.0420 C.3     1  UNL1        0.1022
     13 C          -1.8310    2.7290    2.8530 C.3     1  UNL1        0.0331
     14 N          -2.3870    3.8540    2.0680 N.3     1  UNL1       -0.2991
     15 C          -2.8830    4.9010    2.9780 C.3     1  UNL1       -0.0010
     16 C          -3.4000    6.1170    2.2090 C.3     1  UNL1       -0.0402
     17 C          -4.4810    5.7200    1.2120 C.3     1  UNL1       -0.0507
     18 C          -3.9850    4.5900    0.3190 C.3     1  UNL1       -0.0402
     19 C          -3.4430    3.4200    1.1430 C.3     1  UNL1       -0.0010
     20 C           0.7460    0.1360    0.4500 C.ar    1  UNL1       -0.0091
     21 C           1.6860   -1.9210   -3.1740 C.ar    1  UNL1        0.0625
     22 N           1.8890   -2.7600   -4.1870 N.ar    1  UNL1       -0.1723
     23 N           2.0920   -3.9740   -3.5980 N.ar    1  UNL1       -0.2182
     24 C           2.5000   -5.0820   -4.4030 C.ar    1  UNL1        0.0676
     25 C           3.0470   -6.2450   -3.8410 C.ar    1  UNL1       -0.0335
     26 C           3.4390   -7.3060   -4.6640 C.ar    1  UNL1       -0.0244
     27 C           3.2960   -7.2020   -6.0420 C.ar    1  UNL1        0.1235
     28 F           3.6750   -8.2210   -6.8230 F       1  UNL1       -0.2055
     29 C           2.7770   -6.0510   -6.6190 C.ar    1  UNL1       -0.0244
     30 C           2.3850   -4.9880   -5.8030 C.ar    1  UNL1       -0.0335
     31 H           1.3590   -5.8190   -1.7040 H       1  UNL1        0.1437
     32 H           1.4450   -4.7480   -0.4240 H       1  UNL1        0.1437
     33 H           3.5320   -0.4210   -1.4610 H       1  UNL1        0.0625
     34 H           3.8240    1.9920   -1.0230 H       1  UNL1        0.0619
     35 H           2.1710    3.2150    0.3560 H       1  UNL1        0.0654
     36 H          -1.6820    1.2310    1.2700 H       1  UNL1        0.0709
     37 H          -0.7260    0.8910    2.7360 H       1  UNL1        0.0709
     38 H          -2.6310    2.2260    3.4100 H       1  UNL1        0.0460
     39 H          -1.1290    3.1410    3.5900 H       1  UNL1        0.0460
     40 H          -3.6790    4.5080    3.6230 H       1  UNL1        0.0427
     41 H          -2.0710    5.2390    3.6330 H       1  UNL1        0.0427
     42 H          -3.7980    6.8570    2.9110 H       1  UNL1        0.0278
     43 H          -2.5690    6.5960    1.6760 H       1  UNL1        0.0278
     44 H          -4.7680    6.5840    0.6030 H       1  UNL1        0.0266
     45 H          -5.3780    5.3940    1.7530 H       1  UNL1        0.0266
     46 H          -4.8020    4.2430   -0.3240 H       1  UNL1        0.0278
     47 H          -3.1960    4.9680   -0.3430 H       1  UNL1        0.0278
     48 H          -3.0530    2.6820    0.4340 H       1  UNL1        0.0427
     49 H          -4.2670    2.9430    1.6910 H       1  UNL1        0.0427
     50 H          -0.0950   -0.4130    0.8630 H       1  UNL1        0.0661
     51 H           1.5250   -0.8750   -3.4030 H       1  UNL1        0.0856
     52 H           3.2270   -6.3400   -2.7750 H       1  UNL1        0.0640
     53 H           3.8690   -8.2070   -4.2370 H       1  UNL1        0.0647
     54 H           2.6820   -5.9850   -7.6980 H       1  UNL1        0.0647
     55 H           1.9810   -4.0920   -6.2720 H       1  UNL1        0.0640
@<TRIPOS>BOND
     1     1     2    1
     2     1    31    1
     3     1    32    1
     4     2     3   ar
     5     2    23   ar
     6     3     4    1
     7     3    21   ar
     8     4     5    2
     9     4     6    1
    10     6     7   ar
    11     6    20   ar
    12     7     8   ar
    13     7    33    1
    14     8     9   ar
    15     8    34    1
    16     9    10   ar
    17     9    35    1
    18    10    11    1
    19    10    20   ar
    20    11    12    1
    21    12    13    1
    22    12    36    1
    23    12    37    1
    24    13    14    1
    25    13    38    1
    26    13    39    1
    27    14    15    1
    28    14    19    1
    29    15    16    1
    30    15    40    1
    31    15    41    1
    32    16    17    1
    33    16    42    1
    34    16    43    1
    35    17    18    1
    36    17    44    1
    37    17    45    1
    38    18    19    1
    39    18    46    1
    40    18    47    1
    41    19    48    1
    42    19    49    1
    43    20    50    1
    44    21    22   ar
    45    21    51    1
    46    22    23   ar
    47    23    24    1
    48    24    25   ar
    49    24    30   ar
    50    25    26   ar
    51    25    52    1
    52    26    27   ar
    53    26    53    1
    54    27    28    1
    55    27    29   ar
    56    29    30   ar
    57    29    54    1
    58    30    55    1
@<TRIPOS>MOLECULE
AD3CC00515695-I00-C00
 33 35 0 0 0
SMALL
GASTEIGER

@<TRIPOS>ATOM
      1 N           2.1560   -0.7070   -0.1980 N.pl3   1  UNL1       -0.3425
      2 C           1.3760    0.0500    0.6250 C.ar    1  UNL1        0.1307
      3 C           0.0450    0.3990    0.4510 C.ar    1  UNL1        0.0814
      4 C          -0.8160   -0.0390   -0.6390 C.2     1  UNL1        0.1979
      5 O          -0.4820   -0.9060   -1.4450 O.2     1  UNL1       -0.2865
      6 C          -2.1560    0.5720   -0.7960 C.ar    1  UNL1        0.0224
      7 C          -3.2630   -0.2730   -0.9400 C.ar    1  UNL1       -0.0509
      8 C          -4.5360    0.2730   -1.1030 C.ar    1  UNL1       -0.0611
      9 C          -4.7030    1.6580   -1.1370 C.ar    1  UNL1       -0.0617
     10 C          -3.5970    2.5020   -1.0190 C.ar    1  UNL1       -0.0611
     11 C          -2.3200    1.9620   -0.8550 C.ar    1  UNL1       -0.0509
     12 C          -0.2270    1.2520    1.5380 C.ar    1  UNL1        0.0625
     13 N           0.8330    1.4800    2.3090 N.ar    1  UNL1       -0.1723
     14 N           1.8040    0.6570    1.8150 N.ar    1  UNL1       -0.2182
     15 C           3.0350    0.5210    2.5280 C.ar    1  UNL1        0.0674
     16 C           3.3510    1.4560    3.5290 C.ar    1  UNL1       -0.0362
     17 C           4.5460    1.3540    4.2440 C.ar    1  UNL1       -0.0598
     18 C           5.4300    0.3110    3.9790 C.ar    1  UNL1       -0.0616
     19 C           5.1150   -0.6360    3.0070 C.ar    1  UNL1       -0.0598
     20 C           3.9200   -0.5370    2.2860 C.ar    1  UNL1       -0.0362
     21 H           1.7240   -1.0080   -1.0790 H       1  UNL1        0.1437
     22 H           3.1250   -0.4290   -0.3480 H       1  UNL1        0.1437
     23 H          -3.1330   -1.3530   -0.9270 H       1  UNL1        0.0625
     24 H          -5.3980   -0.3810   -1.2110 H       1  UNL1        0.0618
     25 H          -5.6960    2.0810   -1.2690 H       1  UNL1        0.0618
     26 H          -3.7310    3.5800   -1.0650 H       1  UNL1        0.0618
     27 H          -1.4650    2.6300   -0.7940 H       1  UNL1        0.0625
     28 H          -1.1550    1.7470    1.7950 H       1  UNL1        0.0856
     29 H           2.6770    2.2810    3.7560 H       1  UNL1        0.0639
     30 H           4.7830    2.0880    5.0100 H       1  UNL1        0.0618
     31 H           6.3580    0.2280    4.5390 H       1  UNL1        0.0618
     32 H           5.7930   -1.4650    2.8180 H       1  UNL1        0.0618
     33 H           3.6900   -1.3300    1.5820 H       1  UNL1        0.0639
@<TRIPOS>BOND
     1     1     2    1
     2     1    21    1
     3     1    22    1
     4     2     3   ar
     5     2    14   ar
     6     3     4    1
     7     3    12   ar
     8     4     5    2
     9     4     6    1
    10     6     7   ar
    11     6    11   ar
    12     7     8   ar
    13     7    23    1
    14     8     9   ar
    15     8    24    1
    16     9    10   ar
    17     9    25    1
    18    10    11   ar
    19    10    26    1
    20    11    27    1
    21    12    13   ar
    22    12    28    1
    23    13    14   ar
    24    14    15    1
    25    15    16   ar
    26    15    20   ar
    27    16    17   ar
    28    16    29    1
    29    17    18   ar
    30    17    30    1
    31    18    19   ar
    32    18    31    1
    33    19    20   ar
    34    19    32    1
    35    20    33    1
@<TRIPOS>MOLECULE
AD3CC00515724-I00-C01
 42 45 0 0 0
SMALL
GASTEIGER

@<TRIPOS>ATOM
      1 N          -1.3610   -0.5090   -3.4040 N.pl3   1  UNL1       -0.3425
      2 C          -0.3410    0.2930   -3.0010 C.ar    1  UNL1        0.1308
      3 C           0.2070    0.3600   -1.7290 C.ar    1  UNL1        0.0814
      4 C          -0.2740   -0.3510   -0.5540 C.2     1  UNL1        0.1980
      5 O          -1.4160   -0.8010   -0.4750 O.2     1  UNL1       -0.2865
      6 C           0.6290   -0.5280    0.6100 C.ar    1  UNL1        0.0230
      7 C           1.9570   -0.9360    0.4490 C.ar    1  UNL1       -0.0509
      8 C           2.7660   -1.1060    1.5710 C.ar    1  UNL1       -0.0605
      9 C           2.2470   -0.8810    2.8490 C.ar    1  UNL1       -0.0540
     10 C           0.9090   -0.4930    3.0360 C.ar    1  UNL1       -0.0171
     11 C           0.3620   -0.2760    4.3860 C.ar    1  UNL1       -0.0150
     12 C           1.0070    0.5610    5.3040 C.ar    1  UNL1       -0.0359
     13 C           0.4530    0.7350    6.5630 C.ar    1  UNL1        0.0281
     14 N          -0.6860    0.1390    6.9710 N.ar    1  UNL1       -0.2632
     15 C          -1.2980   -0.6660    6.0790 C.ar    1  UNL1        0.0281
     16 C          -0.8220   -0.9000    4.7980 C.ar    1  UNL1       -0.0359
     17 C           0.1070   -0.3260    1.8960 C.ar    1  UNL1       -0.0432
     18 C           1.2780    1.2590   -1.8610 C.ar    1  UNL1        0.0625
     19 N           1.4390    1.7040   -3.1030 N.ar    1  UNL1       -0.1723
     20 N           0.4030    1.1620   -3.8160 N.ar    1  UNL1       -0.2154
     21 C           0.2740    1.5260   -5.1930 C.ar    1  UNL1        0.1027
     22 C           1.3620    2.1750   -5.8180 C.ar    1  UNL1       -0.0307
     23 C           1.3000    2.5440   -7.1650 C.ar    1  UNL1       -0.0243
     24 C           0.1490    2.2800   -7.8920 C.ar    1  UNL1        0.1263
     25 F           0.0860    2.6350   -9.1810 F       1  UNL1       -0.2054
     26 C          -0.9400    1.6650   -7.2960 C.ar    1  UNL1        0.0109
     27 C          -0.8770    1.2970   -5.9510 C.ar    1  UNL1        0.1514
     28 F          -1.9950    0.7810   -5.4270 F       1  UNL1       -0.2032
     29 H          -1.9450   -0.9210   -2.6680 H       1  UNL1        0.1437
     30 H          -1.9230   -0.2620   -4.2170 H       1  UNL1        0.1437
     31 H           2.3650   -1.1470   -0.5370 H       1  UNL1        0.0625
     32 H           3.7990   -1.4270    1.4540 H       1  UNL1        0.0618
     33 H           2.8950   -1.0380    3.7100 H       1  UNL1        0.0624
     34 H           1.9220    1.0840    5.0460 H       1  UNL1        0.0639
     35 H           0.9250    1.3820    7.2980 H       1  UNL1        0.0830
     36 H          -2.2110   -1.1370    6.4300 H       1  UNL1        0.0830
     37 H          -1.3670   -1.5690    4.1390 H       1  UNL1        0.0639
     38 H          -0.9350   -0.0250    2.0020 H       1  UNL1        0.0631
     39 H           1.9650    1.6100   -1.1010 H       1  UNL1        0.0856
     40 H           2.2790    2.3880   -5.2690 H       1  UNL1        0.0640
     41 H           2.1420    3.0340   -7.6440 H       1  UNL1        0.0647
     42 H          -1.8440    1.4850   -7.8690 H       1  UNL1        0.0676
@<TRIPOS>BOND
     1     1     2    1
     2     1    29    1
     3     1    30    1
     4     2     3   ar
     5     2    20   ar
     6     3     4    1
     7     3    18   ar
     8     4     5    2
     9     4     6    1
    10     6     7   ar
    11     6    17   ar
    12     7     8   ar
    13     7    31    1
    14     8     9   ar
    15     8    32    1
    16     9    10   ar
    17     9    33    1
    18    10    11    1
    19    10    17   ar
    20    11    12   ar
    21    11    16   ar
    22    12    13   ar
    23    12    34    1
    24    13    14   ar
    25    13    35    1
    26    14    15   ar
    27    15    16   ar
    28    15    36    1
    29    16    37    1
    30    17    38    1
    31    18    19   ar
    32    18    39    1
    33    19    20   ar
    34    20    21    1
    35    21    22   ar
    36    21    27   ar
    37    22    23   ar
    38    22    40    1
    39    23    24   ar
    40    23    41    1
    41    24    25    1
    42    24    26   ar
    43    26    27   ar
    44    26    42    1
    45    27    28    1
@<TRIPOS>MOLECULE
AD3CC00522637-I00-C00
 62 65 0 0 0
SMALL
GASTEIGER

@<TRIPOS>ATOM
      1 C          -0.0470   -3.5740   -8.0310 C.3     1  UNL1       -0.0305
      2 C          -1.1400   -2.5260   -7.9330 C.3     1  UNL1        0.0913
      3 O          -1.2410   -2.0390   -6.5870 O.3     1  UNL1       -0.4505
      4 C          -2.0390   -2.7570   -5.7490 C.2     1  UNL1        0.4029
      5 O          -2.6500   -3.7630   -6.0900 O.2     1  UNL1       -0.2263
      6 N          -2.0790   -2.2220   -4.4650 N.am    1  UNL1       -0.2673
      7 C          -3.0780   -2.7570   -3.5470 C.3     1  UNL1        0.0195
      8 C          -2.6610   -2.6050   -2.0910 C.3     1  UNL1       -0.0185
      9 C          -2.2790   -1.1530   -1.7830 C.3     1  UNL1        0.0262
     10 N          -1.8540   -1.0750   -0.3930 N.pl3   1  UNL1       -0.3105
     11 C          -1.7310    0.1800    0.1740 C.ar    1  UNL1        0.2171
     12 N          -2.4930    1.1930   -0.2430 N.ar    1  UNL1       -0.2228
     13 C          -2.3130    2.3710    0.3710 C.ar    1  UNL1        0.0345
     14 C          -1.3950    2.5730    1.3720 C.ar    1  UNL1       -0.0027
     15 C          -0.6370    1.4820    1.7500 C.ar    1  UNL1        0.1382
     16 N           0.3600    1.5910    2.7900 N.am    1  UNL1       -0.2078
     17 C           0.2560    2.5900    3.7860 C.2     1  UNL1        0.3163
     18 O          -0.7830    3.2010    4.0310 O.2     1  UNL1       -0.2515
     19 N           1.4600    2.8580    4.4230 N.am    1  UNL1       -0.2674
     20 C           1.7170    3.7300    5.5060 C.ar    1  UNL1        0.0532
     21 C           0.7110    4.3840    6.2240 C.ar    1  UNL1       -0.0390
     22 C           1.0340    5.2270    7.2940 C.ar    1  UNL1       -0.0599
     23 C           2.3630    5.4240    7.6620 C.ar    1  UNL1       -0.0603
     24 C           3.3770    4.7740    6.9630 C.ar    1  UNL1       -0.0416
     25 C           3.0550    3.9320    5.8950 C.ar    1  UNL1        0.0622
     26 CL          4.3530    3.1420    5.0620 Cl      1  UNL1       -0.0816
     27 C           1.2980    0.5050    2.8920 C.ar    1  UNL1        0.0444
     28 C           1.9800    0.0280    1.7590 C.ar    1  UNL1       -0.0371
     29 C           2.9180   -1.0020    1.8690 C.ar    1  UNL1       -0.0247
     30 C           3.1810   -1.5600    3.1130 C.ar    1  UNL1        0.1235
     31 F           4.0810   -2.5450    3.2180 F       1  UNL1       -0.2055
     32 C           2.5240   -1.1080    4.2490 C.ar    1  UNL1       -0.0247
     33 C           1.5860   -0.0780    4.1400 C.ar    1  UNL1       -0.0371
     34 N          -0.8030    0.2900    1.1290 N.ar    1  UNL1       -0.1988
     35 C          -1.1580   -0.7140   -2.7300 C.3     1  UNL1       -0.0185
     36 C          -1.5800   -0.8790   -4.1850 C.3     1  UNL1        0.0195
     37 H           0.0790   -3.9070   -9.0650 H       1  UNL1        0.0262
     38 H          -0.2790   -4.4440   -7.4090 H       1  UNL1        0.0262
     39 H           0.9050   -3.1700   -7.6720 H       1  UNL1        0.0262
     40 H          -0.8840   -1.6690   -8.5640 H       1  UNL1        0.0695
     41 H          -2.1010   -2.9120   -8.2920 H       1  UNL1        0.0695
     42 H          -3.2630   -3.8150   -3.7620 H       1  UNL1        0.0466
     43 H          -4.0150   -2.2200   -3.7360 H       1  UNL1        0.0466
     44 H          -1.8100   -3.2670   -1.8840 H       1  UNL1        0.0298
     45 H          -3.4790   -2.9310   -1.4370 H       1  UNL1        0.0298
     46 H          -3.1700   -0.5320   -1.9470 H       1  UNL1        0.0499
     47 H          -1.0310   -1.6090   -0.1350 H       1  UNL1        0.1492
     48 H          -2.9490    3.1800    0.0220 H       1  UNL1        0.0832
     49 H          -1.2900    3.5570    1.8060 H       1  UNL1        0.0667
     50 H           2.2880    2.4610    3.9940 H       1  UNL1        0.1564
     51 H          -0.3400    4.2540    5.9840 H       1  UNL1        0.0637
     52 H           0.2380    5.7290    7.8410 H       1  UNL1        0.0618
     53 H           2.6060    6.0800    8.4940 H       1  UNL1        0.0618
     54 H           4.4130    4.9250    7.2540 H       1  UNL1        0.0633
     55 H           1.7990    0.4630    0.7780 H       1  UNL1        0.0637
     56 H           3.4440   -1.3690    0.9930 H       1  UNL1        0.0647
     57 H           2.7380   -1.5630    5.2110 H       1  UNL1        0.0647
     58 H           1.0600    0.2400    5.0390 H       1  UNL1        0.0637
     59 H          -0.2570   -1.3130   -2.5410 H       1  UNL1        0.0298
     60 H          -0.8810    0.3320   -2.5510 H       1  UNL1        0.0298
     61 H          -0.7280   -0.6410   -4.8290 H       1  UNL1        0.0466
     62 H          -2.3830   -0.1750   -4.4340 H       1  UNL1        0.0466
@<TRIPOS>BOND
     1     1     2    1
     2     1    37    1
     3     1    38    1
     4     1    39    1
     5     2     3    1
     6     2    40    1
     7     2    41    1
     8     3     4    1
     9     4     5    2
    10     4     6   am
    11     6     7    1
    12     6    36    1
    13     7     8    1
    14     7    42    1
    15     7    43    1
    16     8     9    1
    17     8    44    1
    18     8    45    1
    19     9    10    1
    20     9    35    1
    21     9    46    1
    22    10    11    1
    23    10    47    1
    24    11    12   ar
    25    11    34   ar
    26    12    13   ar
    27    13    14   ar
    28    13    48    1
    29    14    15   ar
    30    14    49    1
    31    15    16    1
    32    15    34   ar
    33    16    17   am
    34    16    27    1
    35    17    18    2
    36    17    19   am
    37    19    20    1
    38    19    50    1
    39    20    21   ar
    40    20    25   ar
    41    21    22   ar
    42    21    51    1
    43    22    23   ar
    44    22    52    1
    45    23    24   ar
    46    23    53    1
    47    24    25   ar
    48    24    54    1
    49    25    26    1
    50    27    28   ar
    51    27    33   ar
    52    28    29   ar
    53    28    55    1
    54    29    30   ar
    55    29    56    1
    56    30    31    1
    57    30    32   ar
    58    32    33   ar
    59    32    57    1
    60    33    58    1
    61    35    36    1
    62    35    59    1
    63    35    60    1
    64    36    61    1
    65    36    62    1
@<TRIPOS>MOLECULE
AD3CC00522638-I00-C01
 65 68 0 0 0
SMALL
GASTEIGER

@<TRIPOS>ATOM
      1 C           1.5490   -0.2670    6.8490 C.3     1  UNL1       -0.0638
      2 C           0.2290   -0.7990    6.3150 C.3     1  UNL1       -0.0350
      3 C           0.3680   -2.2380    5.8360 C.3     1  UNL1        0.0817
      4 S          -1.1820   -2.9370    5.2650 S.O2    1  UNL1        0.0318
      5 O          -2.1210   -2.8850    6.3660 O.2     1  UNL1       -0.1580
      6 O          -0.9030   -4.1850    4.5880 O.2     1  UNL1       -0.1580
      7 N          -1.6970   -1.8160    4.0840 N.3     1  UNL1       -0.1810
      8 C          -0.8860   -1.7980    2.8330 C.3     1  UNL1        0.0218
      9 C          -1.2530   -0.5640    2.0190 C.3     1  UNL1       -0.0200
     10 C          -2.7450   -0.5270    1.6700 C.3     1  UNL1        0.0257
     11 N          -3.0940   -1.5660    0.6960 N.pl3   1  UNL1       -0.3105
     12 C          -2.9950   -1.1810   -0.6380 C.ar    1  UNL1        0.2171
     13 N          -3.9920   -1.5950   -1.4210 N.ar    1  UNL1       -0.2228
     14 C          -3.9290   -1.2370   -2.7120 C.ar    1  UNL1        0.0345
     15 C          -2.9100   -0.4860   -3.2430 C.ar    1  UNL1       -0.0027
     16 C          -1.9130   -0.0910   -2.3720 C.ar    1  UNL1        0.1382
     17 N          -0.7930    0.6930   -2.8350 N.am    1  UNL1       -0.2078
     18 C          -0.9270    1.5410   -3.9590 C.2     1  UNL1        0.3163
     19 O          -2.0130    1.9050   -4.4050 O.2     1  UNL1       -0.2515
     20 N           0.2850    1.8770   -4.5430 N.am    1  UNL1       -0.2674
     21 C           0.5370    2.7530   -5.6240 C.ar    1  UNL1        0.0532
     22 C          -0.4430    3.5630   -6.2030 C.ar    1  UNL1       -0.0390
     23 C          -0.1250    4.4170   -7.2660 C.ar    1  UNL1       -0.0599
     24 C           1.1770    4.4760   -7.7580 C.ar    1  UNL1       -0.0603
     25 C           2.1690    3.6820   -7.1870 C.ar    1  UNL1       -0.0416
     26 C           1.8510    2.8300   -6.1260 C.ar    1  UNL1        0.0622
     27 CL          3.1210    1.8690   -5.4450 Cl      1  UNL1       -0.0816
     28 C           0.3550    0.7370   -1.9710 C.ar    1  UNL1        0.0444
     29 C           0.9030   -0.4450   -1.4400 C.ar    1  UNL1       -0.0371
     30 C           2.0400   -0.4050   -0.6290 C.ar    1  UNL1       -0.0247
     31 C           2.6360    0.8170   -0.3450 C.ar    1  UNL1        0.1235
     32 F           3.7220    0.8560    0.4370 F       1  UNL1       -0.2055
     33 C           2.1180    1.9990   -0.8580 C.ar    1  UNL1       -0.0247
     34 C           0.9820    1.9590   -1.6710 C.ar    1  UNL1       -0.0371
     35 N          -1.9610   -0.4520   -1.0680 N.ar    1  UNL1       -0.1988
     36 C          -3.5820   -0.7130    2.9440 C.3     1  UNL1       -0.0200
     37 C          -3.1470   -1.9300    3.7570 C.3     1  UNL1        0.0218
     38 H           1.8980   -0.8640    7.6970 H       1  UNL1        0.0230
     39 H           1.4310    0.7680    7.1870 H       1  UNL1        0.0230
     40 H           2.3210   -0.2850    6.0740 H       1  UNL1        0.0230
     41 H          -0.5310   -0.7360    7.1020 H       1  UNL1        0.0279
     42 H          -0.1090   -0.1550    5.4960 H       1  UNL1        0.0279
     43 H           0.7040   -2.8840    6.6540 H       1  UNL1        0.0515
     44 H           1.0970   -2.3240    5.0250 H       1  UNL1        0.0515
     45 H           0.1790   -1.7410    3.0740 H       1  UNL1        0.0444
     46 H          -1.0540   -2.7140    2.2540 H       1  UNL1        0.0444
     47 H          -0.6300   -0.5310    1.1220 H       1  UNL1        0.0296
     48 H          -1.0070    0.3330    2.6030 H       1  UNL1        0.0296
     49 H          -2.9960    0.4620    1.2630 H       1  UNL1        0.0499
     50 H          -4.0520   -1.9040    0.7600 H       1  UNL1        0.1492
     51 H          -4.7480   -1.5870   -3.3340 H       1  UNL1        0.0832
     52 H          -2.9100   -0.2530   -4.2980 H       1  UNL1        0.0667
     53 H           1.0910    1.3430   -4.2350 H       1  UNL1        0.1564
     54 H          -1.4700    3.5620   -5.8490 H       1  UNL1        0.0637
     55 H          -0.9010    5.0380   -7.7070 H       1  UNL1        0.0618
     56 H           1.4180    5.1410   -8.5840 H       1  UNL1        0.0618
     57 H           3.1850    3.7320   -7.5700 H       1  UNL1        0.0633
     58 H           0.4550   -1.4120   -1.6590 H       1  UNL1        0.0637
     59 H           2.4610   -1.3180   -0.2200 H       1  UNL1        0.0647
     60 H           2.5960    2.9440   -0.6190 H       1  UNL1        0.0647
     61 H           0.5770    2.9000   -2.0400 H       1  UNL1        0.0637
     62 H          -3.4730    0.1840    3.5680 H       1  UNL1        0.0296
     63 H          -4.6470   -0.7990    2.6960 H       1  UNL1        0.0296
     64 H          -3.3400   -2.8590    3.2080 H       1  UNL1        0.0444
     65 H          -3.7420   -1.9480    4.6760 H       1  UNL1        0.0444
@<TRIPOS>BOND
     1     1     2    1
     2     1    38    1
     3     1    39    1
     4     1    40    1
     5     2     3    1
     6     2    41    1
     7     2    42    1
     8     4     3    1
     9     3    43    1
    10     3    44    1
    11     4     5    2
    12     4     6    2
    13     4     7    1
    14     7     8    1
    15     7    37    1
    16     8     9    1
    17     8    45    1
    18     8    46    1
    19     9    10    1
    20     9    47    1
    21     9    48    1
    22    10    11    1
    23    10    36    1
    24    10    49    1
    25    11    12    1
    26    11    50    1
    27    12    13   ar
    28    12    35   ar
    29    13    14   ar
    30    14    15   ar
    31    14    51    1
    32    15    16   ar
    33    15    52    1
    34    16    17    1
    35    16    35   ar
    36    17    18   am
    37    17    28    1
    38    18    19    2
    39    18    20   am
    40    20    21    1
    41    20    53    1
    42    21    22   ar
    43    21    26   ar
    44    22    23   ar
    45    22    54    1
    46    23    24   ar
    47    23    55    1
    48    24    25   ar
    49    24    56    1
    50    25    26   ar
    51    25    57    1
    52    26    27    1
    53    28    29   ar
    54    28    34   ar
    55    29    30   ar
    56    29    58    1
    57    30    31   ar
    58    30    59    1
    59    31    32    1
    60    31    33   ar
    61    33    34   ar
    62    33    60    1
    63    34    61    1
    64    36    37    1
    65    36    62    1
    66    36    63    1
    67    37    64    1
    68    37    65    1
@<TRIPOS>MOLECULE
AD3CC00522647-I00-C03
 65 68 0 0 0
SMALL
GASTEIGER

@<TRIPOS>ATOM
      1 C          -2.9600    2.9540    1.6480 C.3     1  UNL1       -0.0380
      2 C          -3.2650    1.8830    2.6600 C.ar    1  UNL1       -0.0292
      3 C          -4.4310    2.0210    3.4370 C.ar    1  UNL1       -0.0571
      4 C          -4.7680    1.0700    4.3960 C.ar    1  UNL1       -0.0614
      5 C          -3.9430   -0.0300    4.5910 C.ar    1  UNL1       -0.0600
      6 C          -2.7850   -0.1840    3.8230 C.ar    1  UNL1       -0.0402
      7 C          -2.4350    0.7540    2.8440 C.ar    1  UNL1        0.0377
      8 N          -1.2680    0.6280    2.0520 N.am    1  UNL1       -0.2685
      9 C          -0.3550   -0.4140    2.0020 C.2     1  UNL1        0.3163
     10 O          -0.5250   -1.4810    2.5950 O.2     1  UNL1       -0.2515
     11 N           0.8210   -0.1420    1.2540 N.am    1  UNL1       -0.2078
     12 C           1.9050   -1.0880    1.2840 C.ar    1  UNL1        0.0443
     13 C           2.5900   -1.4580    0.1210 C.ar    1  UNL1       -0.0381
     14 C           3.6540   -2.3750    0.1650 C.ar    1  UNL1       -0.0389
     15 C           4.0750   -2.9820    1.3590 C.ar    1  UNL1        0.0293
     16 N           5.1510   -3.8770    1.4000 N.pl3   1  UNL1       -0.3360
     17 C           5.3710   -4.6620    2.6140 C.3     1  UNL1        0.0004
     18 C           5.5770   -4.5190    0.1560 C.3     1  UNL1        0.0004
     19 C           3.3710   -2.6000    2.5130 C.ar    1  UNL1       -0.0389
     20 C           2.3040   -1.6870    2.4800 C.ar    1  UNL1       -0.0381
     21 C           0.9600    0.9930    0.3860 C.ar    1  UNL1        0.1382
     22 C           2.1970    1.5710    0.1590 C.ar    1  UNL1       -0.0027
     23 C           2.2230    2.6500   -0.6870 C.ar    1  UNL1        0.0345
     24 N           1.1320    3.1390   -1.2940 N.ar    1  UNL1       -0.2228
     25 C          -0.0260    2.5330   -1.0260 C.ar    1  UNL1        0.2173
     26 N          -1.1330    3.0280   -1.6980 N.pl3   1  UNL1       -0.3069
     27 C          -2.0610    2.0130   -2.1930 C.3     1  UNL1        0.0457
     28 C          -3.3470    2.7150   -2.6460 C.3     1  UNL1       -0.0424
     29 C          -1.4410    1.1950   -3.3180 C.ar    1  UNL1       -0.0275
     30 C          -1.1440   -0.1620   -3.1020 C.ar    1  UNL1       -0.0568
     31 C          -0.5610   -0.9350   -4.1070 C.ar    1  UNL1       -0.0614
     32 C          -0.2610   -0.3630   -5.3410 C.ar    1  UNL1       -0.0617
     33 C          -0.5410    0.9830   -5.5690 C.ar    1  UNL1       -0.0614
     34 C          -1.1240    1.7590   -4.5650 C.ar    1  UNL1       -0.0568
     35 N          -0.1570    1.5120   -0.1670 N.ar    1  UNL1       -0.1988
     36 H          -3.0540    2.5480    0.6380 H       1  UNL1        0.0278
     37 H          -3.6540    3.7980    1.7300 H       1  UNL1        0.0278
     38 H          -1.9520    3.3530    1.7980 H       1  UNL1        0.0278
     39 H          -5.0840    2.8800    3.2990 H       1  UNL1        0.0621
     40 H          -5.6690    1.1890    4.9910 H       1  UNL1        0.0618
     41 H          -4.1940   -0.7750    5.3410 H       1  UNL1        0.0618
     42 H          -2.1740   -1.0580    4.0210 H       1  UNL1        0.0636
     43 H          -1.1370    1.3260    1.3290 H       1  UNL1        0.1564
     44 H           2.2940   -1.0700   -0.8520 H       1  UNL1        0.0637
     45 H           4.1400   -2.6020   -0.7790 H       1  UNL1        0.0637
     46 H           6.2520   -5.3060    2.5150 H       1  UNL1        0.0428
     47 H           5.5720   -4.0140    3.4750 H       1  UNL1        0.0428
     48 H           4.5120   -5.3060    2.8280 H       1  UNL1        0.0428
     49 H           4.7540   -5.0830   -0.2980 H       1  UNL1        0.0428
     50 H           6.4000   -5.2200    0.3320 H       1  UNL1        0.0428
     51 H           5.9580   -3.7830   -0.5600 H       1  UNL1        0.0428
     52 H           3.6260   -3.0070    3.4870 H       1  UNL1        0.0637
     53 H           1.8090   -1.4420    3.4170 H       1  UNL1        0.0637
     54 H           3.1060    1.2280    0.6350 H       1  UNL1        0.0667
     55 H           3.1520    3.1670   -0.9100 H       1  UNL1        0.0832
     56 H          -0.7490    3.6200   -2.4280 H       1  UNL1        0.1495
     57 H          -2.3600    1.3410   -1.3770 H       1  UNL1        0.0545
     58 H          -3.1580    3.4710   -3.4160 H       1  UNL1        0.0251
     59 H          -4.0670    1.9940   -3.0490 H       1  UNL1        0.0251
     60 H          -3.8200    3.2290   -1.8010 H       1  UNL1        0.0251
     61 H          -1.3610   -0.6250   -2.1410 H       1  UNL1        0.0621
     62 H          -0.3400   -1.9830   -3.9250 H       1  UNL1        0.0618
     63 H           0.1930   -0.9640   -6.1240 H       1  UNL1        0.0618
     64 H          -0.3020    1.4310   -6.5310 H       1  UNL1        0.0618
     65 H          -1.3230    2.8080   -4.7650 H       1  UNL1        0.0621
@<TRIPOS>BOND
     1     1     2    1
     2     1    36    1
     3     1    37    1
     4     1    38    1
     5     2     3   ar
     6     2     7   ar
     7     3     4   ar
     8     3    39    1
     9     4     5   ar
    10     4    40    1
    11     5     6   ar
    12     5    41    1
    13     6     7   ar
    14     6    42    1
    15     7     8    1
    16     8     9   am
    17     8    43    1
    18     9    10    2
    19     9    11   am
    20    11    12    1
    21    11    21    1
    22    12    13   ar
    23    12    20   ar
    24    13    14   ar
    25    13    44    1
    26    14    15   ar
    27    14    45    1
    28    15    16    1
    29    15    19   ar
    30    16    17    1
    31    16    18    1
    32    17    46    1
    33    17    47    1
    34    17    48    1
    35    18    49    1
    36    18    50    1
    37    18    51    1
    38    19    20   ar
    39    19    52    1
    40    20    53    1
    41    21    22   ar
    42    21    35   ar
    43    22    23   ar
    44    22    54    1
    45    23    24   ar
    46    23    55    1
    47    24    25   ar
    48    25    26    1
    49    25    35   ar
    50    26    27    1
    51    26    56    1
    52    27    28    1
    53    27    29    1
    54    27    57    1
    55    28    58    1
    56    28    59    1
    57    28    60    1
    58    29    30   ar
    59    29    34   ar
    60    30    31   ar
    61    30    61    1
    62    31    32   ar
    63    31    62    1
    64    32    33   ar
    65    32    63    1
    66    33    34   ar
    67    33    64    1
    68    34    65    1
@<TRIPOS>MOLECULE
AD3CC00522975-I00-C02
 49 52 0 0 0
SMALL
GASTEIGER

@<TRIPOS>ATOM
      1 O          -1.3270   -2.1270   -1.4910 O.2     1  UNL1       -0.2515
      2 C          -1.0350   -1.3610   -0.5700 C.2     1  UNL1        0.3163
      3 N          -1.3740   -0.0200   -0.5800 N.am    1  UNL1       -0.2674
      4 C          -2.1210    0.7040   -1.5420 C.ar    1  UNL1        0.0532
      5 C          -2.6690    0.1190   -2.6890 C.ar    1  UNL1       -0.0390
      6 C          -3.3970    0.8850   -3.6090 C.ar    1  UNL1       -0.0599
      7 C          -3.5930    2.2460   -3.3940 C.ar    1  UNL1       -0.0603
      8 C          -3.0650    2.8450   -2.2550 C.ar    1  UNL1       -0.0416
      9 C          -2.3380    2.0800   -1.3360 C.ar    1  UNL1        0.0622
     10 CL         -1.7420    2.8860    0.0750 Cl      1  UNL1       -0.0816
     11 N          -0.3790   -1.8130    0.6030 N.am    1  UNL1       -0.2078
     12 C          -0.1830   -3.2280    0.7880 C.ar    1  UNL1        0.0444
     13 C          -1.2240   -4.1320    0.5150 C.ar    1  UNL1       -0.0371
     14 C          -1.0450   -5.5080    0.6910 C.ar    1  UNL1       -0.0247
     15 C           0.1800   -5.9890    1.1300 C.ar    1  UNL1        0.1235
     16 F           0.3510   -7.3060    1.2990 F       1  UNL1       -0.2055
     17 C           1.2320   -5.1230    1.3910 C.ar    1  UNL1       -0.0247
     18 C           1.0540   -3.7470    1.2170 C.ar    1  UNL1       -0.0371
     19 C           0.2040   -0.9280    1.5720 C.ar    1  UNL1        0.1382
     20 C           0.3260   -1.2980    2.8970 C.ar    1  UNL1       -0.0027
     21 C           0.8860   -0.3730    3.7380 C.ar    1  UNL1        0.0345
     22 N           1.3100    0.8330    3.3310 N.ar    1  UNL1       -0.2227
     23 C           1.1550    1.1450    2.0380 C.ar    1  UNL1        0.2196
     24 N           1.5540    2.3990    1.5840 N.pl3   1  UNL1       -0.2952
     25 C           2.4410    3.1300    2.5020 C.3     1  UNL1        0.0384
     26 C           2.7160    4.5390    1.9550 C.3     1  UNL1        0.0635
     27 O           3.2480    4.4920    0.6210 O.3     1  UNL1       -0.3767
     28 C           2.3060    3.8550   -0.2580 C.3     1  UNL1        0.0635
     29 C           2.0110    2.4130    0.1840 C.3     1  UNL1        0.0384
     30 N           0.5820    0.3010    1.1620 N.ar    1  UNL1       -0.1986
     31 H          -0.9520    0.5470    0.1530 H       1  UNL1        0.1564
     32 H          -2.5480   -0.9370   -2.9080 H       1  UNL1        0.0637
     33 H          -3.8090    0.4080   -4.4950 H       1  UNL1        0.0618
     34 H          -4.1590    2.8360   -4.1110 H       1  UNL1        0.0618
     35 H          -3.2260    3.9060   -2.0820 H       1  UNL1        0.0633
     36 H          -2.1930   -3.7760    0.1710 H       1  UNL1        0.0637
     37 H          -1.8540   -6.2010    0.4800 H       1  UNL1        0.0647
     38 H           2.1890   -5.5230    1.7130 H       1  UNL1        0.0647
     39 H           1.9090   -3.0940    1.3800 H       1  UNL1        0.0637
     40 H          -0.0250   -2.2440    3.2860 H       1  UNL1        0.0667
     41 H           1.0120   -0.5770    4.7970 H       1  UNL1        0.0832
     42 H           3.3920    2.5910    2.6000 H       1  UNL1        0.0487
     43 H           1.9900    3.2360    3.4960 H       1  UNL1        0.0487
     44 H           3.4520    5.0450    2.5870 H       1  UNL1        0.0575
     45 H           1.8030    5.1460    1.9530 H       1  UNL1        0.0575
     46 H           2.7390    3.8530   -1.2630 H       1  UNL1        0.0575
     47 H           1.3880    4.4530   -0.2900 H       1  UNL1        0.0575
     48 H           1.2590    1.9980   -0.4980 H       1  UNL1        0.0487
     49 H           2.9270    1.8150    0.0960 H       1  UNL1        0.0487
@<TRIPOS>BOND
     1     1     2    2
     2     2     3   am
     3     2    11   am
     4     3     4    1
     5     3    31    1
     6     4     5   ar
     7     4     9   ar
     8     5     6   ar
     9     5    32    1
    10     6     7   ar
    11     6    33    1
    12     7     8   ar
    13     7    34    1
    14     8     9   ar
    15     8    35    1
    16     9    10    1
    17    11    12    1
    18    11    19    1
    19    12    13   ar
    20    12    18   ar
    21    13    14   ar
    22    13    36    1
    23    14    15   ar
    24    14    37    1
    25    15    16    1
    26    15    17   ar
    27    17    18   ar
    28    17    38    1
    29    18    39    1
    30    19    20   ar
    31    19    30   ar
    32    20    21   ar
    33    20    40    1
    34    21    22   ar
    35    21    41    1
    36    22    23   ar
    37    23    24    1
    38    23    30   ar
    39    24    25    1
    40    24    29    1
    41    25    26    1
    42    25    42    1
    43    25    43    1
    44    26    27    1
    45    26    44    1
    46    26    45    1
    47    27    28    1
    48    28    29    1
    49    28    46    1
    50    28    47    1
    51    29    48    1
    52    29    49    1
@<TRIPOS>MOLECULE
AD3CC00525804-I00-C00
 33 36 0 0 0
SMALL
GASTEIGER

@<TRIPOS>ATOM
      1 F           0.5990    4.5630   -3.6050 F       1  UNL1       -0.2005
      2 C           0.4160    5.2540   -2.4460 C.3     1  UNL1        0.2980
      3 F          -0.8880    5.0620   -2.1040 F       1  UNL1       -0.2005
      4 C           1.3190    4.7660   -1.3880 C.ar    1  UNL1        0.2041
      5 N           2.2180    5.4650   -0.7200 N.ar    1  UNL1       -0.1278
      6 N           2.8380    4.6250    0.1730 N.ar    1  UNL1       -0.1292
      7 C           2.3070    3.4310    0.0360 C.ar    1  UNL1        0.1612
      8 C           2.5520    2.1890    0.6750 C.ar    1  UNL1       -0.0163
      9 C           1.8320    1.1080    0.3210 C.ar    1  UNL1       -0.0461
     10 C           0.7810    1.1610   -0.7060 C.ar    1  UNL1        0.0361
     11 C          -0.0200    0.0510   -1.1300 C.ar    1  UNL1        0.1641
     12 O          -0.4330   -0.1130   -2.4470 O.2     1  UNL1       -0.4418
     13 C          -1.1020   -1.2900   -2.4760 C.ar    1  UNL1        0.1831
     14 N          -1.1880   -1.9090   -1.3270 N.ar    1  UNL1       -0.2155
     15 C          -0.5400   -1.0590   -0.4580 C.ar    1  UNL1        0.1170
     16 C          -0.4470   -1.3520    0.9600 C.ar    1  UNL1        0.0041
     17 C          -0.7770   -0.3940    1.9280 C.ar    1  UNL1       -0.0524
     18 C          -0.6780   -0.7010    3.2870 C.ar    1  UNL1       -0.0611
     19 C          -0.2610   -1.9690    3.6880 C.ar    1  UNL1       -0.0617
     20 C           0.0480   -2.9360    2.7320 C.ar    1  UNL1       -0.0611
     21 C          -0.0500   -2.6300    1.3730 C.ar    1  UNL1       -0.0524
     22 C           0.5780    2.3490   -1.3180 C.ar    1  UNL1        0.0238
     23 N           1.3300    3.4630   -0.9470 N.ar    1  UNL1       -0.2811
     24 H           0.5640    6.3170   -2.6530 H       1  UNL1        0.1105
     25 H           3.3270    2.1350    1.4320 H       1  UNL1        0.0655
     26 H           2.0370    0.1510    0.7940 H       1  UNL1        0.0626
     27 H          -1.4950   -1.6020   -3.4340 H       1  UNL1        0.1255
     28 H          -1.1260    0.5940    1.6360 H       1  UNL1        0.0624
     29 H          -0.9350    0.0470    4.0330 H       1  UNL1        0.0618
     30 H          -0.1900   -2.2090    4.7460 H       1  UNL1        0.0618
     31 H           0.3590   -3.9300    3.0430 H       1  UNL1        0.0618
     32 H           0.1830   -3.3950    0.6340 H       1  UNL1        0.0624
     33 H          -0.1620    2.4950   -2.0980 H       1  UNL1        0.0821
@<TRIPOS>BOND
     1     1     2    1
     2     2     3    1
     3     2     4    1
     4     2    24    1
     5     4     5   ar
     6     4    23   ar
     7     5     6   ar
     8     6     7   ar
     9     7     8   ar
    10     7    23   ar
    11     8     9   ar
    12     8    25    1
    13     9    10   ar
    14     9    26    1
    15    10    11    1
    16    10    22   ar
    17    11    12   ar
    18    11    15   ar
    19    12    13   ar
    20    13    14   ar
    21    13    27    1
    22    14    15   ar
    23    15    16    1
    24    16    17   ar
    25    16    21   ar
    26    17    18   ar
    27    17    28    1
    28    18    19   ar
    29    18    29    1
    30    19    20   ar
    31    19    30    1
    32    20    21   ar
    33    20    31    1
    34    21    32    1
    35    22    23   ar
    36    22    33    1
@<TRIPOS>MOLECULE
AD3CC00525981-I00-C01
 39 42 0 0 0
SMALL
GASTEIGER

@<TRIPOS>ATOM
      1 C          -4.3510   -3.5040    0.4290 C.3     1  UNL1       -0.0557
      2 C          -2.8850   -3.8530    0.6880 C.3     1  UNL1        0.0138
      3 C          -2.7590   -5.3000    1.1670 C.3     1  UNL1       -0.0557
      4 C          -2.2900   -2.9020    1.6810 C.ar    1  UNL1        0.1403
      5 N          -2.2670   -3.0520    2.9930 N.ar    1  UNL1       -0.1334
      6 N          -1.6380   -1.9640    3.5470 N.ar    1  UNL1       -0.1294
      7 C          -1.2930   -1.1600    2.5690 C.ar    1  UNL1        0.1611
      8 C          -0.6390    0.0980    2.5440 C.ar    1  UNL1       -0.0163
      9 C          -0.4210    0.7090    1.3640 C.ar    1  UNL1       -0.0461
     10 C          -0.8270    0.1140    0.0830 C.ar    1  UNL1        0.0361
     11 C          -0.6320    0.7100   -1.2050 C.ar    1  UNL1        0.1641
     12 O          -1.5670    0.6000   -2.2280 O.2     1  UNL1       -0.4418
     13 C          -1.0760    1.3370   -3.2530 C.ar    1  UNL1        0.1831
     14 N           0.0820    1.9020   -3.0260 N.ar    1  UNL1       -0.2155
     15 C           0.3930    1.4900   -1.7490 C.ar    1  UNL1        0.1171
     16 C           1.6490    1.8630   -1.1260 C.ar    1  UNL1        0.0069
     17 C           2.0900    3.1930   -1.2150 C.ar    1  UNL1       -0.0509
     18 C           3.3040    3.5820   -0.6380 C.ar    1  UNL1       -0.0400
     19 C           4.0890    2.6390    0.0220 C.ar    1  UNL1        0.0761
     20 CL          5.5790    3.1230    0.7320 Cl      1  UNL1       -0.0806
     21 C           3.6620    1.3140    0.0940 C.ar    1  UNL1        0.1422
     22 F           4.4080    0.3890    0.7160 F       1  UNL1       -0.2039
     23 C           2.4540    0.9200   -0.4780 C.ar    1  UNL1       -0.0157
     24 C          -1.4640   -1.0770    0.1300 C.ar    1  UNL1        0.0236
     25 N          -1.6850   -1.7030    1.3560 N.ar    1  UNL1       -0.2855
     26 H          -4.9470   -3.5730    1.3460 H       1  UNL1        0.0236
     27 H          -4.4520   -2.4830    0.0450 H       1  UNL1        0.0236
     28 H          -4.7880   -4.1830   -0.3100 H       1  UNL1        0.0236
     29 H          -2.3390   -3.7800   -0.2600 H       1  UNL1        0.0374
     30 H          -1.7110   -5.5620    1.3520 H       1  UNL1        0.0236
     31 H          -3.1500   -5.9930    0.4140 H       1  UNL1        0.0236
     32 H          -3.3140   -5.4690    2.0970 H       1  UNL1        0.0236
     33 H          -0.3420    0.5480    3.4850 H       1  UNL1        0.0655
     34 H           0.0520    1.6870    1.3500 H       1  UNL1        0.0626
     35 H          -1.6800    1.3880   -4.1490 H       1  UNL1        0.1255
     36 H           1.4880    3.9330   -1.7420 H       1  UNL1        0.0625
     37 H           3.6290    4.6170   -0.7140 H       1  UNL1        0.0633
     38 H           2.1700   -0.1270   -0.4180 H       1  UNL1        0.0653
     39 H          -1.8190   -1.5920   -0.7550 H       1  UNL1        0.0821
@<TRIPOS>BOND
     1     1     2    1
     2     1    26    1
     3     1    27    1
     4     1    28    1
     5     2     3    1
     6     2     4    1
     7     2    29    1
     8     3    30    1
     9     3    31    1
    10     3    32    1
    11     4     5   ar
    12     4    25   ar
    13     5     6   ar
    14     6     7   ar
    15     7     8   ar
    16     7    25   ar
    17     8     9   ar
    18     8    33    1
    19     9    10   ar
    20     9    34    1
    21    10    11    1
    22    10    24   ar
    23    11    12   ar
    24    11    15   ar
    25    12    13   ar
    26    13    14   ar
    27    13    35    1
    28    14    15   ar
    29    15    16    1
    30    16    17   ar
    31    16    23   ar
    32    17    18   ar
    33    17    36    1
    34    18    19   ar
    35    18    37    1
    36    19    20    1
    37    19    21   ar
    38    21    22    1
    39    21    23   ar
    40    23    38    1
    41    24    25   ar
    42    24    39    1
@<TRIPOS>MOLECULE
AD3CC00534012-I00-C00
 44 46 0 0 0
SMALL
GASTEIGER

@<TRIPOS>ATOM
      1 N          -2.5990   -3.7170    1.9220 N.3     1  UNL1       -0.3299
      2 C          -2.5470   -3.1120    0.5950 C.3     1  UNL1       -0.0055
      3 C          -2.3430   -1.6010    0.6680 C.3     1  UNL1       -0.0244
      4 C          -0.9850   -1.2230    1.2700 C.3     1  UNL1        0.0198
      5 N          -0.7820    0.2380    1.1790 N.pl3   1  UNL1       -0.2825
      6 C          -0.3620    0.8220   -0.0230 C.ar    1  UNL1        0.1467
      7 C          -0.1660    2.2980   -0.1090 C.ar    1  UNL1       -0.0145
      8 C           0.3160    2.8180   -1.2360 C.ar    1  UNL1        0.0080
      9 C           0.6350    1.9560   -2.3890 C.ar    1  UNL1        0.2720
     10 O           1.2510    2.4600   -3.3250 O.2     1  UNL1       -0.2658
     11 N           0.2180    0.6310   -2.2710 N.ar    1  UNL1       -0.1936
     12 C           0.3800   -0.3150   -3.3300 C.ar    1  UNL1        0.0875
     13 C           0.8820   -1.5940   -3.0170 C.ar    1  UNL1       -0.0347
     14 C           1.1090   -2.5490   -4.0110 C.ar    1  UNL1       -0.0597
     15 C           0.8190   -2.2520   -5.3380 C.ar    1  UNL1       -0.0603
     16 C           0.2780   -1.0100   -5.6650 C.ar    1  UNL1       -0.0413
     17 C           0.0450   -0.0470   -4.6710 C.ar    1  UNL1        0.0664
     18 CL         -0.8430    1.3570   -5.1680 Cl      1  UNL1       -0.0813
     19 N          -0.1860    0.0680   -1.0780 N.ar    1  UNL1       -0.1478
     20 C          -0.4540    0.7980    2.4430 C.ar    1  UNL1        0.0536
     21 C          -1.5100    1.1780    3.2910 C.ar    1  UNL1       -0.0389
     22 C          -1.2590    1.7380    4.5450 C.ar    1  UNL1       -0.0599
     23 C           0.0530    1.9220    4.9760 C.ar    1  UNL1       -0.0603
     24 C           1.1150    1.5390    4.1560 C.ar    1  UNL1       -0.0416
     25 C           0.8680    0.9770    2.9000 C.ar    1  UNL1        0.0623
     26 CL          2.2350    0.4850    1.9620 Cl      1  UNL1       -0.0816
     27 H          -2.7340   -4.7240    1.8250 H       1  UNL1        0.1182
     28 H          -3.4210   -3.3750    2.4210 H       1  UNL1        0.1182
     29 H          -1.7350   -3.5720    0.0210 H       1  UNL1        0.0422
     30 H          -3.4830   -3.3290    0.0690 H       1  UNL1        0.0422
     31 H          -2.4350   -1.1960   -0.3470 H       1  UNL1        0.0293
     32 H          -3.1490   -1.1380    1.2530 H       1  UNL1        0.0293
     33 H          -0.9500   -1.5680    2.3120 H       1  UNL1        0.0469
     34 H          -0.1720   -1.7470    0.7530 H       1  UNL1        0.0469
     35 H          -0.4090    2.9160    0.7440 H       1  UNL1        0.0654
     36 H           0.5060    3.8760   -1.3560 H       1  UNL1        0.0673
     37 H           1.1390   -1.8400   -1.9890 H       1  UNL1        0.0639
     38 H           1.5200   -3.5200   -3.7450 H       1  UNL1        0.0618
     39 H           0.9940   -2.9920   -6.1150 H       1  UNL1        0.0618
     40 H           0.0120   -0.8010   -6.6990 H       1  UNL1        0.0633
     41 H          -2.5390    1.0420    2.9640 H       1  UNL1        0.0637
     42 H          -2.0880    2.0300    5.1840 H       1  UNL1        0.0618
     43 H           0.2490    2.3560    5.9530 H       1  UNL1        0.0618
     44 H           2.1360    1.6740    4.5060 H       1  UNL1        0.0633
@<TRIPOS>BOND
     1     1     2    1
     2     1    27    1
     3     1    28    1
     4     2     3    1
     5     2    29    1
     6     2    30    1
     7     3     4    1
     8     3    31    1
     9     3    32    1
    10     4     5    1
    11     4    33    1
    12     4    34    1
    13     5     6    1
    14     5    20    1
    15     6     7   ar
    16     6    19   ar
    17     7     8   ar
    18     7    35    1
    19     8     9   ar
    20     8    36    1
    21     9    10    2
    22     9    11   ar
    23    11    12    1
    24    11    19   ar
    25    12    13   ar
    26    12    17   ar
    27    13    14   ar
    28    13    37    1
    29    14    15   ar
    30    14    38    1
    31    15    16   ar
    32    15    39    1
    33    16    17   ar
    34    16    40    1
    35    17    18    1
    36    20    21   ar
    37    20    25   ar
    38    21    22   ar
    39    21    41    1
    40    22    23   ar
    41    22    42    1
    42    23    24   ar
    43    23    43    1
    44    24    25   ar
    45    24    44    1
    46    25    26    1
@<TRIPOS>MOLECULE
AD3CC00537299-I00-C00
 66 69 0 0 0
SMALL
GASTEIGER

@<TRIPOS>ATOM
      1 C          -3.7800   -2.9590   -1.0170 C.3     1  UNL1       -0.0380
      2 C          -2.4380   -2.7940   -1.6820 C.ar    1  UNL1       -0.0292
      3 C          -2.2420   -3.3860   -2.9420 C.ar    1  UNL1       -0.0564
      4 C          -1.0250   -3.2580   -3.6050 C.ar    1  UNL1       -0.0493
      5 C           0.0080   -2.5240   -3.0240 C.ar    1  UNL1        0.0383
      6 C           1.2920   -2.4130   -3.7650 C.2     1  UNL1        0.2416
      7 N           2.0910   -1.3410   -3.4810 N.am    1  UNL1       -0.3253
      8 O           1.6090   -3.2220   -4.6290 O.2     1  UNL1       -0.2704
      9 C          -0.1750   -1.9410   -1.7610 C.ar    1  UNL1       -0.0281
     10 C          -1.3840   -2.0790   -1.0610 C.ar    1  UNL1        0.0372
     11 N          -1.5980   -1.4850    0.1930 N.pl3   1  UNL1       -0.2832
     12 C          -0.8790   -0.5790    0.9730 C.ar    1  UNL1        0.2254
     13 N          -1.2990   -0.4750    2.2270 N.ar    1  UNL1       -0.1808
     14 C          -0.6480    0.3960    2.9810 C.ar    1  UNL1        0.2213
     15 N          -1.0040    0.5660    4.3080 N.pl3   1  UNL1       -0.3092
     16 C          -1.4960   -0.6110    5.0220 C.3     1  UNL1        0.0369
     17 C          -0.3740   -1.6240    5.2830 C.3     1  UNL1       -0.0207
     18 C          -0.0040   -1.4670    6.7550 C.3     1  UNL1       -0.0023
     19 N          -0.6600   -0.2380    7.1980 N.3     1  UNL1       -0.3142
     20 C          -1.9180   -0.2000    6.4400 C.3     1  UNL1        0.0144
     21 N           0.3520    1.1490    2.5540 N.ar    1  UNL1       -0.1809
     22 C           0.7070    1.0030    1.2830 C.ar    1  UNL1        0.2234
     23 N           1.7430    1.7810    0.7880 N.pl3   1  UNL1       -0.3020
     24 C           2.2360    2.8520    1.6330 C.3     1  UNL1        0.0034
     25 C           1.9380    1.8450   -0.6590 C.3     1  UNL1        0.0211
     26 C           0.8340    2.6370   -1.4040 C.3     1  UNL1       -0.0029
     27 C           1.0330    4.1530   -1.3000 C.3     1  UNL1       -0.0570
     28 C           0.7660    2.1950   -2.8610 C.ar    1  UNL1       -0.0431
     29 C          -0.3520    1.4770   -3.3130 C.ar    1  UNL1       -0.0583
     30 C          -0.4290    1.0350   -4.6340 C.ar    1  UNL1       -0.0615
     31 C           0.6120    1.3020   -5.5200 C.ar    1  UNL1       -0.0617
     32 C           1.7290    2.0120   -5.0860 C.ar    1  UNL1       -0.0615
     33 C           1.8080    2.4550   -3.7650 C.ar    1  UNL1       -0.0583
     34 N           0.1150    0.1370    0.4690 N.ar    1  UNL1       -0.1806
     35 H          -4.1980   -1.9820   -0.7500 H       1  UNL1        0.0278
     36 H          -3.6820   -3.5750   -0.1170 H       1  UNL1        0.0278
     37 H          -4.5010   -3.4490   -1.6790 H       1  UNL1        0.0278
     38 H          -3.0410   -3.9540   -3.4160 H       1  UNL1        0.0621
     39 H          -0.8860   -3.7270   -4.5770 H       1  UNL1        0.0625
     40 H           2.8510   -1.1950   -4.1320 H       1  UNL1        0.1453
     41 H           1.6730   -0.4980   -3.1050 H       1  UNL1        0.1453
     42 H           0.6550   -1.4150   -1.3020 H       1  UNL1        0.0644
     43 H          -2.3310   -1.8840    0.7620 H       1  UNL1        0.1550
     44 H          -0.2440    1.0430    4.7840 H       1  UNL1        0.1492
     45 H          -2.3450   -1.0620    4.4960 H       1  UNL1        0.0511
     46 H           0.5010   -1.4680    4.6420 H       1  UNL1        0.0296
     47 H          -0.7370   -2.6430    5.1030 H       1  UNL1        0.0296
     48 H          -0.3770   -2.3240    7.3300 H       1  UNL1        0.0425
     49 H           1.0790   -1.4080    6.8990 H       1  UNL1        0.0425
     50 H          -0.8420   -0.2620    8.2000 H       1  UNL1        0.1220
     51 H          -2.3740    0.7930    6.4810 H       1  UNL1        0.0442
     52 H          -2.6250   -0.9290    6.8560 H       1  UNL1        0.0442
     53 H           1.4530    3.5880    1.8440 H       1  UNL1        0.0429
     54 H           2.6170    2.4600    2.5830 H       1  UNL1        0.0429
     55 H           3.0690    3.3780    1.1540 H       1  UNL1        0.0429
     56 H           2.9210    2.2840   -0.8760 H       1  UNL1        0.0470
     57 H           2.0070    0.8210   -1.0510 H       1  UNL1        0.0470
     58 H          -0.1400    2.4250   -0.9470 H       1  UNL1        0.0361
     59 H           0.9160    4.4950   -0.2670 H       1  UNL1        0.0236
     60 H           2.0270    4.4620   -1.6410 H       1  UNL1        0.0236
     61 H           0.2920    4.6870   -1.9060 H       1  UNL1        0.0236
     62 H          -1.1730    1.2480   -2.6340 H       1  UNL1        0.0620
     63 H          -1.3000    0.4780   -4.9690 H       1  UNL1        0.0618
     64 H           0.5520    0.9540   -6.5480 H       1  UNL1        0.0618
     65 H           2.5400    2.2210   -5.7800 H       1  UNL1        0.0618
     66 H           2.6920    3.0050   -3.4490 H       1  UNL1        0.0620
@<TRIPOS>BOND
     1     1     2    1
     2     1    35    1
     3     1    36    1
     4     1    37    1
     5     2     3   ar
     6     2    10   ar
     7     3     4   ar
     8     3    38    1
     9     4     5   ar
    10     4    39    1
    11     5     6    1
    12     5     9   ar
    13     6     7   am
    14     6     8    2
    15     7    40    1
    16     7    41    1
    17     9    10   ar
    18     9    42    1
    19    10    11    1
    20    11    12    1
    21    11    43    1
    22    12    13   ar
    23    12    34   ar
    24    13    14   ar
    25    14    15    1
    26    14    21   ar
    27    15    16    1
    28    15    44    1
    29    16    17    1
    30    16    20    1
    31    16    45    1
    32    17    18    1
    33    17    46    1
    34    17    47    1
    35    18    19    1
    36    18    48    1
    37    18    49    1
    38    19    20    1
    39    19    50    1
    40    20    51    1
    41    20    52    1
    42    21    22   ar
    43    22    23    1
    44    22    34   ar
    45    23    24    1
    46    23    25    1
    47    24    53    1
    48    24    54    1
    49    24    55    1
    50    25    26    1
    51    25    56    1
    52    25    57    1
    53    26    27    1
    54    26    28    1
    55    26    58    1
    56    27    59    1
    57    27    60    1
    58    27    61    1
    59    28    29   ar
    60    28    33   ar
    61    29    30   ar
    62    29    62    1
    63    30    31   ar
    64    30    63    1
    65    31    32   ar
    66    31    64    1
    67    32    33   ar
    68    32    65    1
    69    33    66    1
@<TRIPOS>MOLECULE
AD3CC00537334-I00-C00
 75 78 0 0 0
SMALL
GASTEIGER

@<TRIPOS>ATOM
      1 C           0.3760    5.0890   -2.4840 C.3     1  UNL1       -0.0380
      2 C           1.0280    4.3690   -1.3340 C.ar    1  UNL1       -0.0292
      3 C           1.7830    5.1210   -0.4150 C.ar    1  UNL1       -0.0564
      4 C           2.4050    4.5060    0.6700 C.ar    1  UNL1       -0.0493
      5 C           2.2870    3.1280    0.8480 C.ar    1  UNL1        0.0385
      6 C           2.9770    2.4960    2.0090 C.2     1  UNL1        0.2444
      7 O           3.2700    3.1630    2.9940 O.2     1  UNL1       -0.2702
      8 N           3.2910    1.1600    1.8840 N.am    1  UNL1       -0.3072
      9 C           4.0750    0.4920    2.8950 C.3     1  UNL1        0.0371
     10 C           4.0910   -0.9950    2.6560 C.ar    1  UNL1       -0.0303
     11 C           4.9560   -1.5550    1.7040 C.ar    1  UNL1       -0.0571
     12 C           4.9450   -2.9300    1.4610 C.ar    1  UNL1       -0.0615
     13 C           4.0680   -3.7550    2.1610 C.ar    1  UNL1       -0.0617
     14 C           3.2000   -3.2090    3.1050 C.ar    1  UNL1       -0.0615
     15 C           3.2100   -1.8360    3.3500 C.ar    1  UNL1       -0.0571
     16 C           1.5200    2.3790   -0.0550 C.ar    1  UNL1       -0.0281
     17 C           0.8980    2.9710   -1.1660 C.ar    1  UNL1        0.0372
     18 N           0.1070    2.2270   -2.0540 N.pl3   1  UNL1       -0.2832
     19 C          -0.4410    0.9440   -2.0070 C.ar    1  UNL1        0.2254
     20 N          -0.9350    0.5010   -3.1540 N.ar    1  UNL1       -0.1808
     21 C          -1.4710   -0.7070   -3.1180 C.ar    1  UNL1        0.2213
     22 N          -1.9570   -1.1830   -4.3310 N.pl3   1  UNL1       -0.3092
     23 C          -1.7790   -2.6210   -4.5510 C.3     1  UNL1        0.0369
     24 C          -2.4660   -3.0040   -5.8630 C.3     1  UNL1       -0.0207
     25 C          -1.3790   -2.9080   -6.9330 C.3     1  UNL1       -0.0023
     26 N          -0.1450   -2.5250   -6.2410 N.3     1  UNL1       -0.3142
     27 C          -0.3170   -2.9750   -4.8540 C.3     1  UNL1        0.0144
     28 N          -1.5470   -1.4570   -2.0290 N.ar    1  UNL1       -0.1809
     29 C          -1.0570   -0.9400   -0.9090 C.ar    1  UNL1        0.2234
     30 N          -1.1800   -1.6620    0.2720 N.pl3   1  UNL1       -0.3020
     31 C          -1.5470   -3.0600    0.1300 C.3     1  UNL1        0.0034
     32 C          -0.3960   -1.2600    1.4400 C.3     1  UNL1        0.0195
     33 C          -1.2410   -0.5110    2.5100 C.3     1  UNL1       -0.0219
     34 C          -2.4090   -1.3810    3.0080 C.3     1  UNL1       -0.0586
     35 C          -1.8010    0.8180    1.9740 C.3     1  UNL1       -0.0586
     36 C          -0.3260   -0.1960    3.7090 C.3     1  UNL1       -0.0586
     37 N          -0.4760    0.2520   -0.8760 N.ar    1  UNL1       -0.1806
     38 H          -0.6980    4.8770   -2.5130 H       1  UNL1        0.0278
     39 H           0.8350    4.7800   -3.4280 H       1  UNL1        0.0278
     40 H           0.4870    6.1750   -2.3970 H       1  UNL1        0.0278
     41 H           1.8860    6.1970   -0.5370 H       1  UNL1        0.0621
     42 H           2.9810    5.1030    1.3740 H       1  UNL1        0.0625
     43 H           3.2530    0.7310    0.9700 H       1  UNL1        0.1493
     44 H           5.0930    0.8960    2.8690 H       1  UNL1        0.0512
     45 H           3.6620    0.7270    3.8830 H       1  UNL1        0.0512
     46 H           5.6450   -0.9210    1.1500 H       1  UNL1        0.0621
     47 H           5.6240   -3.3570    0.7290 H       1  UNL1        0.0618
     48 H           4.0630   -4.8260    1.9750 H       1  UNL1        0.0618
     49 H           2.5180   -3.8530    3.6570 H       1  UNL1        0.0618
     50 H           2.5320   -1.4210    4.0940 H       1  UNL1        0.0621
     51 H           1.4020    1.3160    0.1140 H       1  UNL1        0.0644
     52 H          -0.0440    2.6160   -2.9720 H       1  UNL1        0.1550
     53 H          -1.5000   -0.6280   -5.0520 H       1  UNL1        0.1492
     54 H          -2.1940   -3.2090   -3.7240 H       1  UNL1        0.0511
     55 H          -2.8200   -4.0410   -5.8040 H       1  UNL1        0.0296
     56 H          -3.3260   -2.3660   -6.0970 H       1  UNL1        0.0296
     57 H          -1.2560   -3.8710   -7.4400 H       1  UNL1        0.0425
     58 H          -1.6320   -2.1570   -7.6870 H       1  UNL1        0.0425
     59 H           0.6660   -2.9670   -6.6720 H       1  UNL1        0.1220
     60 H          -0.1640   -4.0600   -4.7910 H       1  UNL1        0.0442
     61 H           0.4010   -2.4820   -4.1920 H       1  UNL1        0.0442
     62 H          -0.7840   -3.6180   -0.4240 H       1  UNL1        0.0429
     63 H          -2.5120   -3.1700   -0.3780 H       1  UNL1        0.0429
     64 H          -1.6570   -3.5390    1.1090 H       1  UNL1        0.0429
     65 H           0.0350   -2.1600    1.9030 H       1  UNL1        0.0470
     66 H           0.4780   -0.6580    1.1600 H       1  UNL1        0.0470
     67 H          -3.1300   -1.5860    2.2090 H       1  UNL1        0.0235
     68 H          -2.0490   -2.3430    3.3930 H       1  UNL1        0.0235
     69 H          -2.9540   -0.8840    3.8190 H       1  UNL1        0.0235
     70 H          -0.9980    1.4720    1.6180 H       1  UNL1        0.0235
     71 H          -2.3400    1.3620    2.7590 H       1  UNL1        0.0235
     72 H          -2.5070    0.6580    1.1520 H       1  UNL1        0.0235
     73 H           0.0590   -1.1160    4.1630 H       1  UNL1        0.0235
     74 H          -0.8640    0.3540    4.4880 H       1  UNL1        0.0235
     75 H           0.5330    0.4120    3.4030 H       1  UNL1        0.0235
@<TRIPOS>BOND
     1     1     2    1
     2     1    38    1
     3     1    39    1
     4     1    40    1
     5     2     3   ar
     6     2    17   ar
     7     3     4   ar
     8     3    41    1
     9     4     5   ar
    10     4    42    1
    11     5     6    1
    12     5    16   ar
    13     6     7    2
    14     6     8   am
    15     8     9    1
    16     8    43    1
    17     9    10    1
    18     9    44    1
    19     9    45    1
    20    10    11   ar
    21    10    15   ar
    22    11    12   ar
    23    11    46    1
    24    12    13   ar
    25    12    47    1
    26    13    14   ar
    27    13    48    1
    28    14    15   ar
    29    14    49    1
    30    15    50    1
    31    16    17   ar
    32    16    51    1
    33    17    18    1
    34    18    19    1
    35    18    52    1
    36    19    20   ar
    37    19    37   ar
    38    20    21   ar
    39    21    22    1
    40    21    28   ar
    41    22    23    1
    42    22    53    1
    43    23    24    1
    44    23    27    1
    45    23    54    1
    46    24    25    1
    47    24    55    1
    48    24    56    1
    49    25    26    1
    50    25    57    1
    51    25    58    1
    52    26    27    1
    53    26    59    1
    54    27    60    1
    55    27    61    1
    56    28    29   ar
    57    29    30    1
    58    29    37   ar
    59    30    31    1
    60    30    32    1
    61    31    62    1
    62    31    63    1
    63    31    64    1
    64    33    32    1
    65    32    65    1
    66    32    66    1
    67    33    34    1
    68    33    35    1
    69    33    36    1
    70    34    67    1
    71    34    68    1
    72    34    69    1
    73    35    70    1
    74    35    71    1
    75    35    72    1
    76    36    73    1
    77    36    74    1
    78    36    75    1
@<TRIPOS>MOLECULE
AD3CC00537370-I00-C00
 69 71 0 0 0
SMALL
GASTEIGER

@<TRIPOS>ATOM
      1 C           1.8080   -0.3720   -5.7290 C.3     1  UNL1        0.0622
      2 O           0.4160   -0.0760   -5.7530 O.3     1  UNL1       -0.2829
      3 N          -0.1760   -0.6310   -4.5910 N.am    1  UNL1       -0.1909
      4 C          -0.8800   -1.7990   -4.8260 C.2     1  UNL1        0.2667
      5 O          -0.8050   -2.4680   -5.8520 O.2     1  UNL1       -0.2681
      6 C          -1.8060   -2.2250   -3.7360 C.ar    1  UNL1        0.0405
      7 C          -2.8740   -3.0630   -4.0570 C.ar    1  UNL1       -0.0492
      8 C          -3.7510   -3.4820   -3.0580 C.ar    1  UNL1       -0.0564
      9 C          -3.5720   -3.0730   -1.7250 C.ar    1  UNL1       -0.0292
     10 C          -4.5450   -3.5720   -0.6870 C.3     1  UNL1       -0.0380
     11 C          -2.4990   -2.2160   -1.3840 C.ar    1  UNL1        0.0372
     12 N          -2.3010   -1.8440   -0.0430 N.pl3   1  UNL1       -0.2832
     13 C          -1.2910   -1.1480    0.6240 C.ar    1  UNL1        0.2254
     14 N          -1.5870   -0.7870    1.8630 N.ar    1  UNL1       -0.1806
     15 C          -0.6610   -0.1070    2.5270 C.ar    1  UNL1        0.2234
     16 N          -0.9460    0.3350    3.8180 N.pl3   1  UNL1       -0.3020
     17 C           0.2030    0.8140    4.5740 C.3     1  UNL1        0.0034
     18 C          -1.9970   -0.3680    4.5600 C.3     1  UNL1        0.0195
     19 C          -3.2860    0.4840    4.7320 C.3     1  UNL1       -0.0219
     20 C          -2.9940    1.7960    5.4810 C.3     1  UNL1       -0.0586
     21 C          -3.9360    0.8150    3.3780 C.3     1  UNL1       -0.0586
     22 C          -4.2920   -0.3360    5.5650 C.3     1  UNL1       -0.0586
     23 N           0.5200    0.1910    1.9930 N.ar    1  UNL1       -0.1807
     24 C           0.7680   -0.2330    0.7600 C.ar    1  UNL1        0.2237
     25 N           2.0010    0.0670    0.1660 N.pl3   1  UNL1       -0.2971
     26 C           2.4480   -0.9570   -0.7960 C.3     1  UNL1        0.0277
     27 C           3.7680   -0.5330   -1.4820 C.3     1  UNL1        0.0145
     28 N           4.8320   -0.1900   -0.5140 N.3     1  UNL1       -0.3024
     29 C           6.0430    0.2350   -1.2110 C.3     1  UNL1       -0.0126
     30 C           4.3390    0.8800    0.3800 C.3     1  UNL1        0.0145
     31 C           3.0400    0.4840    1.1210 C.3     1  UNL1        0.0277
     32 N          -0.1260   -0.9010    0.0460 N.ar    1  UNL1       -0.1806
     33 C          -1.6180   -1.8250   -2.4050 C.ar    1  UNL1       -0.0280
     34 H           2.2710    0.0400   -4.8270 H       1  UNL1        0.0547
     35 H           1.9710   -1.4530   -5.7810 H       1  UNL1        0.0547
     36 H           2.2720    0.0900   -6.6040 H       1  UNL1        0.0547
     37 H          -0.5850    0.0620   -3.9730 H       1  UNL1        0.1828
     38 H          -3.0240   -3.3950   -5.0830 H       1  UNL1        0.0625
     39 H          -4.5750   -4.1410   -3.3280 H       1  UNL1        0.0621
     40 H          -5.2610   -4.2820   -1.1130 H       1  UNL1        0.0278
     41 H          -4.0140   -4.0890    0.1180 H       1  UNL1        0.0278
     42 H          -5.1150   -2.7350   -0.2740 H       1  UNL1        0.0278
     43 H          -3.0960   -1.9200    0.5740 H       1  UNL1        0.1550
     44 H           0.9290    0.0110    4.7450 H       1  UNL1        0.0429
     45 H          -0.1070    1.1910    5.5550 H       1  UNL1        0.0429
     46 H           0.7000    1.6490    4.0660 H       1  UNL1        0.0429
     47 H          -1.6130   -0.6290    5.5570 H       1  UNL1        0.0470
     48 H          -2.2470   -1.3370    4.1070 H       1  UNL1        0.0470
     49 H          -2.5170    1.6020    6.4480 H       1  UNL1        0.0235
     50 H          -3.9180    2.3530    5.6740 H       1  UNL1        0.0235
     51 H          -2.3330    2.4520    4.9040 H       1  UNL1        0.0235
     52 H          -3.2950    1.4630    2.7720 H       1  UNL1        0.0235
     53 H          -4.8870    1.3420    3.5180 H       1  UNL1        0.0235
     54 H          -4.1470   -0.0940    2.8050 H       1  UNL1        0.0235
     55 H          -5.2230    0.2190    5.7250 H       1  UNL1        0.0235
     56 H          -4.5490   -1.2750    5.0610 H       1  UNL1        0.0235
     57 H          -3.8820   -0.5870    6.5490 H       1  UNL1        0.0235
     58 H           1.7050   -1.1050   -1.5890 H       1  UNL1        0.0477
     59 H           2.5970   -1.9170   -0.2840 H       1  UNL1        0.0477
     60 H           3.5640    0.3230   -2.1400 H       1  UNL1        0.0442
     61 H           4.1040   -1.3600   -2.1180 H       1  UNL1        0.0442
     62 H           6.8370    0.4710   -0.4940 H       1  UNL1        0.0391
     63 H           5.8750    1.1160   -1.8400 H       1  UNL1        0.0391
     64 H           6.4230   -0.5730   -1.8450 H       1  UNL1        0.0391
     65 H           4.1550    1.7990   -0.1930 H       1  UNL1        0.0442
     66 H           5.1040    1.1110    1.1300 H       1  UNL1        0.0442
     67 H           2.7110    1.3580    1.6980 H       1  UNL1        0.0477
     68 H           3.2590   -0.3290    1.8250 H       1  UNL1        0.0477
     69 H          -0.7660   -1.2030   -2.1630 H       1  UNL1        0.0644
@<TRIPOS>BOND
     1     1     2    1
     2     1    34    1
     3     1    35    1
     4     1    36    1
     5     2     3    1
     6     3     4   am
     7     3    37    1
     8     4     5    2
     9     4     6    1
    10     6     7   ar
    11     6    33   ar
    12     7     8   ar
    13     7    38    1
    14     8     9   ar
    15     8    39    1
    16     9    10    1
    17     9    11   ar
    18    10    40    1
    19    10    41    1
    20    10    42    1
    21    11    12    1
    22    11    33   ar
    23    12    13    1
    24    12    43    1
    25    13    14   ar
    26    13    32   ar
    27    14    15   ar
    28    15    16    1
    29    15    23   ar
    30    16    17    1
    31    16    18    1
    32    17    44    1
    33    17    45    1
    34    17    46    1
    35    19    18    1
    36    18    47    1
    37    18    48    1
    38    19    20    1
    39    19    21    1
    40    19    22    1
    41    20    49    1
    42    20    50    1
    43    20    51    1
    44    21    52    1
    45    21    53    1
    46    21    54    1
    47    22    55    1
    48    22    56    1
    49    22    57    1
    50    23    24   ar
    51    24    25    1
    52    24    32   ar
    53    25    26    1
    54    25    31    1
    55    26    27    1
    56    26    58    1
    57    26    59    1
    58    27    28    1
    59    27    60    1
    60    27    61    1
    61    28    29    1
    62    28    30    1
    63    29    62    1
    64    29    63    1
    65    29    64    1
    66    30    31    1
    67    30    65    1
    68    30    66    1
    69    31    67    1
    70    31    68    1
    71    33    69    1
@<TRIPOS>MOLECULE
AD3CC00537411-I01-C01
 64 67 0 0 0
SMALL
GASTEIGER

@<TRIPOS>ATOM
      1 C           2.0650    2.3450   -3.3570 C.3     1  UNL1        0.0365
      2 O           2.4140    1.0190   -2.9690 O.3     1  UNL1       -0.3812
      3 C           2.1370    0.8000   -1.5840 C.3     1  UNL1        0.0653
      4 C           2.5000   -0.6340   -1.2210 C.3     1  UNL1        0.0491
      5 N           1.9770   -1.0500    0.0680 N.ar    1  UNL1       -0.3159
      6 C           2.5710   -0.8890    1.2920 C.ar    1  UNL1        0.1703
      7 S           4.0140    0.0340    1.5520 S.3     1  UNL1       -0.0830
      8 C           3.3590    1.3080    2.6890 C.3     1  UNL1        0.0262
      9 C           2.3560    2.2130    2.0090 C.ar    1  UNL1       -0.0368
     10 C           0.9820    1.9430    2.1000 C.ar    1  UNL1       -0.0531
     11 C           0.0590    2.6800    1.3570 C.ar    1  UNL1       -0.0065
     12 C           0.4950    3.7110    0.5230 C.ar    1  UNL1        0.1545
     13 S          -0.7000    4.5760   -0.5170 S.3     1  UNL1       -0.0158
     14 C          -1.3140    5.7130    0.7490 C.3     1  UNL1        0.1025
     15 O           0.1730    5.4670   -1.6140 O.co2   1  UNL1       -0.6134
     16 C           1.8570    4.0210    0.4640 C.ar    1  UNL1       -0.0065
     17 C           2.7820    3.2790    1.2050 C.ar    1  UNL1       -0.0531
     18 N           1.8530   -1.4050    2.2590 N.ar    1  UNL1       -0.2212
     19 C           0.7090   -1.8780    1.6570 C.ar    1  UNL1        0.0979
     20 C          -0.3810   -2.4440    2.4400 C.ar    1  UNL1        0.0026
     21 C          -1.2120   -3.4600    1.9460 C.ar    1  UNL1       -0.0498
     22 C          -2.2490   -3.9740    2.7300 C.ar    1  UNL1       -0.0258
     23 C          -2.4500   -3.4820    4.0130 C.ar    1  UNL1        0.1234
     24 F          -3.4440   -3.9770    4.7620 F       1  UNL1       -0.2055
     25 C          -1.6290   -2.4890    4.5320 C.ar    1  UNL1       -0.0258
     26 C          -0.5940   -1.9750    3.7480 C.ar    1  UNL1       -0.0498
     27 C           0.7340   -1.6310    0.2880 C.ar    1  UNL1        0.0775
     28 C          -0.3030   -1.7400   -0.7340 C.ar    1  UNL1        0.0053
     29 C          -0.3020   -2.7850   -1.6510 C.ar    1  UNL1       -0.0343
     30 C          -1.3110   -2.8130   -2.5950 C.ar    1  UNL1        0.0303
     31 N          -2.2860   -1.8820   -2.6820 N.ar    1  UNL1       -0.2401
     32 C          -2.2660   -0.8660   -1.7930 C.ar    1  UNL1        0.1255
     33 N          -3.2940    0.0570   -1.9840 N.am    1  UNL1       -0.2706
     34 C          -3.5180    1.2380   -1.3190 C.2     1  UNL1        0.2152
     35 C          -4.7320    1.9720   -1.8320 C.3     1  UNL1        0.0125
     36 O          -2.8320    1.7170   -0.4210 O.2     1  UNL1       -0.2757
     37 C          -1.3050   -0.7680   -0.8010 C.ar    1  UNL1       -0.0123
     38 H           2.2970    2.4640   -4.4190 H       1  UNL1        0.0523
     39 H           0.9940    2.5160   -3.2120 H       1  UNL1        0.0523
     40 H           2.6450    3.0770   -2.7870 H       1  UNL1        0.0523
     41 H           1.0760    0.9980   -1.3950 H       1  UNL1        0.0577
     42 H           2.7360    1.4960   -0.9920 H       1  UNL1        0.0577
     43 H           2.1300   -1.3290   -1.9830 H       1  UNL1        0.0515
     44 H           3.5870   -0.7710   -1.2210 H       1  UNL1        0.0515
     45 H           2.9190    0.8320    3.5720 H       1  UNL1        0.0429
     46 H           4.2020    1.9080    3.0500 H       1  UNL1        0.0429
     47 H           0.6260    1.1200    2.7180 H       1  UNL1        0.0622
     48 H          -0.9960    2.4170    1.4110 H       1  UNL1        0.0667
     49 H          -1.8330    5.1520    1.5290 H       1  UNL1        0.0808
     50 H          -0.4840    6.2780    1.1810 H       1  UNL1        0.0808
     51 H          -2.0160    6.4070    0.2800 H       1  UNL1        0.0808
     52 H           2.2110    4.8210   -0.1840 H       1  UNL1        0.0667
     53 H           3.8420    3.5110    1.1130 H       1  UNL1        0.0622
     54 H          -1.0560   -3.8780    0.9560 H       1  UNL1        0.0625
     55 H          -2.8950   -4.7590    2.3480 H       1  UNL1        0.0646
     56 H          -1.7950   -2.1250    5.5400 H       1  UNL1        0.0646
     57 H           0.0540   -1.2050    4.1620 H       1  UNL1        0.0625
     58 H           0.4570   -3.5590   -1.6320 H       1  UNL1        0.0639
     59 H          -1.3620   -3.6070   -3.3350 H       1  UNL1        0.0830
     60 H          -3.8920   -0.2020   -2.7580 H       1  UNL1        0.1562
     61 H          -5.4630    1.2820   -2.2630 H       1  UNL1        0.0323
     62 H          -4.4200    2.6930   -2.5920 H       1  UNL1        0.0323
     63 H          -5.2120    2.4980   -1.0020 H       1  UNL1        0.0323
     64 H          -1.3070    0.0440   -0.0840 H       1  UNL1        0.0658
@<TRIPOS>UNITY_ATOM_ATTR
13 1
charge 1
15 1
charge -1
@<TRIPOS>BOND
     1     1     2    1
     2     1    38    1
     3     1    39    1
     4     1    40    1
     5     2     3    1
     6     3     4    1
     7     3    41    1
     8     3    42    1
     9     4     5    1
    10     4    43    1
    11     4    44    1
    12     5     6   ar
    13     5    27   ar
    14     6     7    1
    15     6    18   ar
    16     7     8    1
    17     8     9    1
    18     8    45    1
    19     8    46    1
    20     9    10   ar
    21     9    17   ar
    22    10    11   ar
    23    10    47    1
    24    11    12   ar
    25    11    48    1
    26    12    13    1
    27    12    16   ar
    28    13    14    1
    29    13    15    1
    30    14    49    1
    31    14    50    1
    32    14    51    1
    33    16    17   ar
    34    16    52    1
    35    17    53    1
    36    18    19   ar
    37    19    20    1
    38    19    27   ar
    39    20    21   ar
    40    20    26   ar
    41    21    22   ar
    42    21    54    1
    43    22    23   ar
    44    22    55    1
    45    23    24    1
    46    23    25   ar
    47    25    26   ar
    48    25    56    1
    49    26    57    1
    50    27    28    1
    51    28    29   ar
    52    28    37   ar
    53    29    30   ar
    54    29    58    1
    55    30    31   ar
    56    30    59    1
    57    31    32   ar
    58    32    33    1
    59    32    37   ar
    60    33    34   am
    61    33    60    1
    62    34    35    1
    63    34    36    2
    64    35    61    1
    65    35    62    1
    66    35    63    1
    67    37    64    1
@<TRIPOS>MOLECULE
AD3CC00537419-I01-C02
 68 71 0 0 0
SMALL
GASTEIGER

@<TRIPOS>ATOM
      1 C          -5.2270    7.3120   -1.4130 C.3     1  UNL1        0.0125
      2 C          -4.2030    6.2140   -1.2790 C.2     1  UNL1        0.2152
      3 O          -3.0030    6.4720   -1.2650 O.2     1  UNL1       -0.2757
      4 N          -4.7690    4.9650   -1.2020 N.am    1  UNL1       -0.2706
      5 C          -4.1270    3.7300   -1.0970 C.ar    1  UNL1        0.1255
      6 C          -2.7520    3.5590   -1.1270 C.ar    1  UNL1       -0.0123
      7 C          -2.2300    2.2700   -0.9980 C.ar    1  UNL1        0.0053
      8 C          -0.7870    2.0350   -1.0240 C.ar    1  UNL1        0.0775
      9 C           0.0080    1.3390   -1.9280 C.ar    1  UNL1        0.0979
     10 C          -0.4180    0.7000   -3.1640 C.ar    1  UNL1        0.0026
     11 C           0.1300   -0.5450   -3.5130 C.ar    1  UNL1       -0.0498
     12 C          -0.2570   -1.1850   -4.6930 C.ar    1  UNL1       -0.0258
     13 C          -1.1840   -0.5760   -5.5290 C.ar    1  UNL1        0.1234
     14 F          -1.5540   -1.1890   -6.6600 F       1  UNL1       -0.2055
     15 C          -1.7260    0.6630   -5.2120 C.ar    1  UNL1       -0.0258
     16 C          -1.3380    1.3040   -4.0320 C.ar    1  UNL1       -0.0498
     17 N           1.3120    1.2850   -1.5030 N.ar    1  UNL1       -0.2212
     18 C           1.3440    1.9580   -0.3780 C.ar    1  UNL1        0.1703
     19 S           2.7850    2.2680    0.5350 S.3     1  UNL1       -0.0830
     20 C           3.8480    0.8830    0.0320 C.3     1  UNL1        0.0262
     21 C           3.5290   -0.3910    0.7800 C.ar    1  UNL1       -0.0368
     22 C           3.9460   -0.5630    2.1080 C.ar    1  UNL1       -0.0531
     23 C           3.5840   -1.7070    2.8220 C.ar    1  UNL1       -0.0065
     24 C           2.8060   -2.6970    2.2160 C.ar    1  UNL1        0.1545
     25 S           2.1990   -4.1080    3.1650 S.3     1  UNL1       -0.0158
     26 C           3.7690   -4.9990    3.2940 C.3     1  UNL1        0.1025
     27 O           1.8310   -3.5160    4.6760 O.co2   1  UNL1       -0.6134
     28 C           2.4090   -2.5470    0.8850 C.ar    1  UNL1       -0.0065
     29 C           2.7660   -1.3980    0.1740 C.ar    1  UNL1       -0.0531
     30 N           0.1010    2.4280   -0.0260 N.ar    1  UNL1       -0.3159
     31 C          -0.2470    3.1790    1.1740 C.3     1  UNL1        0.0491
     32 C          -0.9570    2.3340    2.2300 C.3     1  UNL1        0.0657
     33 O          -0.0560    1.3580    2.7490 O.3     1  UNL1       -0.3758
     34 C          -0.7070    0.4390    3.6290 C.3     1  UNL1        0.0708
     35 C           0.3030   -0.6170    4.0540 C.3     1  UNL1        0.0676
     36 O          -0.3130   -1.6210    4.8500 O.3     1  UNL1       -0.3927
     37 C          -3.1060    1.1950   -0.8640 C.ar    1  UNL1       -0.0343
     38 C          -4.4610    1.4580   -0.8540 C.ar    1  UNL1        0.0303
     39 N          -4.9850    2.6970   -0.9630 N.ar    1  UNL1       -0.2401
     40 H          -5.3680    7.5440   -2.4720 H       1  UNL1        0.0323
     41 H          -6.1870    7.0220   -0.9750 H       1  UNL1        0.0323
     42 H          -4.8710    8.2030   -0.8870 H       1  UNL1        0.0323
     43 H          -5.7760    4.8720   -1.1840 H       1  UNL1        0.1562
     44 H          -2.0770    4.3960   -1.2630 H       1  UNL1        0.0658
     45 H           0.8630   -1.0180   -2.8640 H       1  UNL1        0.0625
     46 H           0.1650   -2.1470   -4.9650 H       1  UNL1        0.0646
     47 H          -2.4390    1.1270   -5.8850 H       1  UNL1        0.0646
     48 H          -1.7520    2.2850   -3.8120 H       1  UNL1        0.0625
     49 H           4.8850    1.1650    0.2500 H       1  UNL1        0.0429
     50 H           3.8060    0.7280   -1.0510 H       1  UNL1        0.0429
     51 H           4.5250    0.2130    2.6050 H       1  UNL1        0.0622
     52 H           3.8750   -1.7970    3.8670 H       1  UNL1        0.0667
     53 H           4.5060   -4.3920    3.8240 H       1  UNL1        0.0808
     54 H           3.5950   -5.9190    3.8560 H       1  UNL1        0.0808
     55 H           4.1370   -5.2520    2.2980 H       1  UNL1        0.0808
     56 H           1.7820   -3.2920    0.4020 H       1  UNL1        0.0667
     57 H           2.4160   -1.2720   -0.8500 H       1  UNL1        0.0622
     58 H          -0.8800    4.0160    0.8650 H       1  UNL1        0.0515
     59 H           0.6640    3.6180    1.5910 H       1  UNL1        0.0515
     60 H          -1.8410    1.8390    1.8140 H       1  UNL1        0.0577
     61 H          -1.2790    2.9840    3.0530 H       1  UNL1        0.0577
     62 H          -1.5490   -0.0410    3.1180 H       1  UNL1        0.0583
     63 H          -1.0990    0.9690    4.5050 H       1  UNL1        0.0583
     64 H           1.1200   -0.1590    4.6190 H       1  UNL1        0.0580
     65 H           0.7240   -1.0850    3.1620 H       1  UNL1        0.0580
     66 H           0.3900   -2.2940    5.0150 H       1  UNL1        0.2095
     67 H          -2.7450    0.1760   -0.7690 H       1  UNL1        0.0639
     68 H          -5.1840    0.6540   -0.7540 H       1  UNL1        0.0830
@<TRIPOS>UNITY_ATOM_ATTR
25 1
charge 1
27 1
charge -1
@<TRIPOS>BOND
     1     1     2    1
     2     1    40    1
     3     1    41    1
     4     1    42    1
     5     2     3    2
     6     2     4   am
     7     4     5    1
     8     4    43    1
     9     5     6   ar
    10     5    39   ar
    11     6     7   ar
    12     6    44    1
    13     7     8    1
    14     7    37   ar
    15     8     9   ar
    16     8    30   ar
    17     9    10    1
    18     9    17   ar
    19    10    11   ar
    20    10    16   ar
    21    11    12   ar
    22    11    45    1
    23    12    13   ar
    24    12    46    1
    25    13    14    1
    26    13    15   ar
    27    15    16   ar
    28    15    47    1
    29    16    48    1
    30    17    18   ar
    31    18    19    1
    32    18    30   ar
    33    19    20    1
    34    20    21    1
    35    20    49    1
    36    20    50    1
    37    21    22   ar
    38    21    29   ar
    39    22    23   ar
    40    22    51    1
    41    23    24   ar
    42    23    52    1
    43    24    25    1
    44    24    28   ar
    45    25    26    1
    46    25    27    1
    47    26    53    1
    48    26    54    1
    49    26    55    1
    50    28    29   ar
    51    28    56    1
    52    29    57    1
    53    30    31    1
    54    31    32    1
    55    31    58    1
    56    31    59    1
    57    32    33    1
    58    32    60    1
    59    32    61    1
    60    33    34    1
    61    34    35    1
    62    34    62    1
    63    34    63    1
    64    35    36    1
    65    35    64    1
    66    35    65    1
    67    36    66    1
    68    37    38   ar
    69    37    67    1
    70    38    39   ar
    71    38    68    1
@<TRIPOS>MOLECULE
AD3CC00537491-I00-C00
 60 63 0 0 0
SMALL
GASTEIGER

@<TRIPOS>ATOM
      1 C           3.7230    4.5160    0.6810 C.3     1  UNL1       -0.0107
      2 S           2.3080    3.6700    1.4220 S.3     1  UNL1       -0.0911
      3 C           2.5060    2.0790    0.7600 C.ar    1  UNL1        0.1697
      4 N           3.4560    1.7300   -0.0710 N.ar    1  UNL1       -0.2212
      5 C           3.2340    0.4020   -0.3510 C.ar    1  UNL1        0.0979
      6 C           4.0750   -0.3250   -1.2900 C.ar    1  UNL1        0.0026
      7 C           4.5490    0.3400   -2.4320 C.ar    1  UNL1       -0.0498
      8 C           5.3590   -0.3220   -3.3570 C.ar    1  UNL1       -0.0258
      9 C           5.7030   -1.6490   -3.1360 C.ar    1  UNL1        0.1234
     10 F           6.4810   -2.2870   -4.0210 F       1  UNL1       -0.2055
     11 C           5.2580   -2.3240   -2.0060 C.ar    1  UNL1       -0.0258
     12 C           4.4470   -1.6610   -1.0800 C.ar    1  UNL1       -0.0498
     13 C           2.1180   -0.0700    0.3300 C.ar    1  UNL1        0.0775
     14 C           1.4420   -1.3640    0.2970 C.ar    1  UNL1        0.0053
     15 C           1.5700   -2.2540    1.3600 C.ar    1  UNL1       -0.0343
     16 C           0.9180   -3.4690    1.2690 C.ar    1  UNL1        0.0303
     17 N           0.1640   -3.8380    0.2110 N.ar    1  UNL1       -0.2401
     18 C           0.0430   -2.9610   -0.8090 C.ar    1  UNL1        0.1255
     19 N          -0.7650   -3.4350   -1.8430 N.am    1  UNL1       -0.2706
     20 C          -1.1510   -2.7850   -2.9890 C.2     1  UNL1        0.2152
     21 C          -2.0170   -3.6330   -3.8870 C.3     1  UNL1        0.0125
     22 O          -0.8520   -1.6400   -3.3140 O.2     1  UNL1       -0.2757
     23 C           0.6690   -1.7240   -0.8090 C.ar    1  UNL1       -0.0123
     24 N           1.6560    1.0360    1.0300 N.ar    1  UNL1       -0.3169
     25 C           0.4540    1.0880    1.8510 C.3     1  UNL1        0.0385
     26 C          -0.7740    1.5240    1.0390 C.3     1  UNL1        0.0170
     27 N          -2.0250    1.5090    1.8270 N.3     1  UNL1       -0.3006
     28 C          -2.0730    2.6240    2.7890 C.3     1  UNL1       -0.0010
     29 C          -3.3570    2.5890    3.6200 C.3     1  UNL1       -0.0402
     30 C          -4.5950    2.5960    2.7330 C.3     1  UNL1       -0.0507
     31 C          -4.5040    1.4910    1.6890 C.3     1  UNL1       -0.0402
     32 C          -3.1850    1.5630    0.9180 C.3     1  UNL1       -0.0010
     33 H           4.6600    4.0440    0.9890 H       1  UNL1        0.0345
     34 H           3.7340    5.5560    1.0170 H       1  UNL1        0.0345
     35 H           3.6500    4.5070   -0.4100 H       1  UNL1        0.0345
     36 H           4.2830    1.3810   -2.6040 H       1  UNL1        0.0625
     37 H           5.7220    0.1900   -4.2420 H       1  UNL1        0.0646
     38 H           5.5470   -3.3580   -1.8490 H       1  UNL1        0.0646
     39 H           4.1280   -2.1960   -0.1910 H       1  UNL1        0.0625
     40 H           2.1680   -2.0150    2.2330 H       1  UNL1        0.0639
     41 H           0.9870   -4.2020    2.0670 H       1  UNL1        0.0830
     42 H          -1.1060   -4.3680   -1.6550 H       1  UNL1        0.1562
     43 H          -1.4480   -3.9000   -4.7820 H       1  UNL1        0.0323
     44 H          -2.3490   -4.5500   -3.3930 H       1  UNL1        0.0323
     45 H          -2.9040   -3.0590   -4.1720 H       1  UNL1        0.0323
     46 H           0.5760   -1.0360   -1.6410 H       1  UNL1        0.0658
     47 H           0.2940    0.0970    2.2870 H       1  UNL1        0.0505
     48 H           0.6550    1.7580    2.6920 H       1  UNL1        0.0505
     49 H          -0.6130    2.5130    0.5890 H       1  UNL1        0.0444
     50 H          -0.8760    0.8240    0.2000 H       1  UNL1        0.0444
     51 H          -1.9980    3.5890    2.2700 H       1  UNL1        0.0426
     52 H          -1.2320    2.5650    3.4860 H       1  UNL1        0.0426
     53 H          -3.3840    3.4510    4.2970 H       1  UNL1        0.0278
     54 H          -3.3630    1.6890    4.2490 H       1  UNL1        0.0278
     55 H          -5.4970    2.4650    3.3420 H       1  UNL1        0.0266
     56 H          -4.6820    3.5680    2.2320 H       1  UNL1        0.0266
     57 H          -4.5890    0.5140    2.1810 H       1  UNL1        0.0278
     58 H          -5.3450    1.5710    0.9910 H       1  UNL1        0.0278
     59 H          -3.1550    0.7120    0.2260 H       1  UNL1        0.0426
     60 H          -3.1610    2.4780    0.3120 H       1  UNL1        0.0426
@<TRIPOS>BOND
     1     1     2    1
     2     1    33    1
     3     1    34    1
     4     1    35    1
     5     2     3    1
     6     3     4   ar
     7     3    24   ar
     8     4     5   ar
     9     5     6    1
    10     5    13   ar
    11     6     7   ar
    12     6    12   ar
    13     7     8   ar
    14     7    36    1
    15     8     9   ar
    16     8    37    1
    17     9    10    1
    18     9    11   ar
    19    11    12   ar
    20    11    38    1
    21    12    39    1
    22    13    14    1
    23    13    24   ar
    24    14    15   ar
    25    14    23   ar
    26    15    16   ar
    27    15    40    1
    28    16    17   ar
    29    16    41    1
    30    17    18   ar
    31    18    19    1
    32    18    23   ar
    33    19    20   am
    34    19    42    1
    35    20    21    1
    36    20    22    2
    37    21    43    1
    38    21    44    1
    39    21    45    1
    40    23    46    1
    41    24    25    1
    42    25    26    1
    43    25    47    1
    44    25    48    1
    45    26    27    1
    46    26    49    1
    47    26    50    1
    48    27    28    1
    49    27    32    1
    50    28    29    1
    51    28    51    1
    52    28    52    1
    53    29    30    1
    54    29    53    1
    55    29    54    1
    56    30    31    1
    57    30    55    1
    58    30    56    1
    59    31    32    1
    60    31    57    1
    61    31    58    1
    62    32    59    1
    63    32    60    1
@<TRIPOS>MOLECULE
AD3CC00547235-I00-C00
 47 51 0 0 0
SMALL
GASTEIGER

@<TRIPOS>ATOM
      1 C           1.1090   -3.1220    0.3210 C.3     1  UNL1        0.0804
      2 O           1.0770   -2.0420   -0.6050 O.3     1  UNL1       -0.4791
      3 C           0.3570   -2.3100   -1.7560 C.ar    1  UNL1        0.2288
      4 N          -0.2870   -3.5020   -1.8450 N.ar    1  UNL1       -0.1945
      5 C          -0.9350   -3.6670   -3.0130 C.ar    1  UNL1        0.1420
      6 N          -1.6470   -4.7870   -3.3500 N.ar    1  UNL1       -0.3457
      7 C          -2.1770   -4.6390   -4.6070 C.ar    1  UNL1        0.0041
      8 C          -1.7950   -3.4030   -5.0840 C.ar    1  UNL1       -0.0351
      9 C          -1.0090   -2.7770   -4.0790 C.ar    1  UNL1        0.0196
     10 C          -0.3410   -1.5520   -3.9460 C.ar    1  UNL1       -0.0338
     11 C           0.3350   -1.3210   -2.7410 C.ar    1  UNL1        0.0990
     12 C           1.0560   -0.0470   -2.5850 C.2     1  UNL1        0.2521
     13 O           1.9400    0.2040   -3.4020 O.2     1  UNL1       -0.2698
     14 N           0.6960    0.8250   -1.5610 N.am    1  UNL1       -0.2926
     15 C          -0.5930    0.7760   -0.8340 C.3     1  UNL1        0.0207
     16 C          -0.3980    0.9690    0.6850 C.3     1  UNL1        0.0059
     17 C           0.4760    2.1570    0.8940 C.ar    1  UNL1        0.0511
     18 C           1.3010    2.6610   -0.0940 C.ar    1  UNL1        0.0110
     19 C           1.7830    3.8640    0.4340 C.ar    1  UNL1        0.0547
     20 N           1.2770    4.1260    1.6400 N.ar    1  UNL1       -0.1742
     21 N           0.5430    3.0220    1.9680 N.ar    1  UNL1       -0.2349
     22 C          -0.1310    2.9880    3.2160 C.ar    1  UNL1        0.0839
     23 C          -0.6650    4.2030    3.6890 C.ar    1  UNL1       -0.0348
     24 C          -1.3940    4.2490    4.8790 C.ar    1  UNL1       -0.0597
     25 C          -1.5790    3.0880    5.6220 C.ar    1  UNL1       -0.0603
     26 C          -1.0090    1.8900    5.1890 C.ar    1  UNL1       -0.0413
     27 C          -0.2710    1.8340    3.9970 C.ar    1  UNL1        0.0663
     28 CL          0.5750    0.3560    3.7100 Cl      1  UNL1       -0.0813
     29 C           1.4910    2.0570   -1.4410 C.3     1  UNL1        0.0432
     30 H           1.7200   -2.8100    1.1740 H       1  UNL1        0.0660
     31 H           1.5780   -4.0090   -0.1180 H       1  UNL1        0.0660
     32 H           0.1060   -3.3510    0.6970 H       1  UNL1        0.0660
     33 H          -1.7460   -5.5910   -2.7480 H       1  UNL1        0.1668
     34 H          -2.7730   -5.4250   -5.0520 H       1  UNL1        0.0807
     35 H          -2.0520   -2.9940   -6.0530 H       1  UNL1        0.0639
     36 H          -0.3410   -0.8130   -4.7410 H       1  UNL1        0.0634
     37 H          -1.2140    1.5820   -1.2460 H       1  UNL1        0.0468
     38 H          -1.1320   -0.1560   -1.0200 H       1  UNL1        0.0468
     39 H           0.0920    0.0720    1.0720 H       1  UNL1        0.0344
     40 H          -1.3710    1.0850    1.1720 H       1  UNL1        0.0344
     41 H           2.4460    4.5870   -0.0230 H       1  UNL1        0.0851
     42 H          -0.5400    5.1230    3.1180 H       1  UNL1        0.0639
     43 H          -1.8140    5.1910    5.2220 H       1  UNL1        0.0618
     44 H          -2.1400    3.1200    6.5520 H       1  UNL1        0.0618
     45 H          -1.1160    1.0030    5.8100 H       1  UNL1        0.0633
     46 H           2.5490    1.8330   -1.6150 H       1  UNL1        0.0515
     47 H           1.1490    2.7470   -2.2200 H       1  UNL1        0.0515
@<TRIPOS>BOND
     1     1     2    1
     2     1    30    1
     3     1    31    1
     4     1    32    1
     5     2     3    1
     6     3     4   ar
     7     3    11   ar
     8     4     5   ar
     9     5     6   ar
    10     5     9   ar
    11     6     7   ar
    12     6    33    1
    13     7     8   ar
    14     7    34    1
    15     8     9   ar
    16     8    35    1
    17     9    10   ar
    18    10    11   ar
    19    10    36    1
    20    11    12    1
    21    12    13    2
    22    12    14   am
    23    14    15    1
    24    14    29    1
    25    15    16    1
    26    15    37    1
    27    15    38    1
    28    16    17    1
    29    16    39    1
    30    16    40    1
    31    17    18   ar
    32    17    21   ar
    33    18    19   ar
    34    18    29    1
    35    19    20   ar
    36    19    41    1
    37    20    21   ar
    38    21    22    1
    39    22    23   ar
    40    22    27   ar
    41    23    24   ar
    42    23    42    1
    43    24    25   ar
    44    24    43    1
    45    25    26   ar
    46    25    44    1
    47    26    27   ar
    48    26    45    1
    49    27    28    1
    50    29    46    1
    51    29    47    1
@<TRIPOS>MOLECULE
AD3CC00547262-I00-C00
 56 60 0 0 0
SMALL
GASTEIGER

@<TRIPOS>ATOM
      1 C           3.3010    3.7220    1.4890 C.3     1  UNL1        0.0032
      2 N           2.1560    4.6140    1.5860 N.am    1  UNL1       -0.3010
      3 C           2.3660    5.9930    1.1890 C.3     1  UNL1        0.0032
      4 C           0.8390    4.1450    1.6660 C.2     1  UNL1        0.2866
      5 O          -0.1590    4.8540    1.5910 O.2     1  UNL1       -0.2664
      6 C           0.6420    2.6400    1.8650 C.2     1  UNL1        0.2494
      7 O           0.9110    1.9050    0.9150 O.2     1  UNL1       -0.2817
      8 C           0.1730    2.1310    3.1520 C.ar    1  UNL1        0.0519
      9 C          -0.2480    2.8940    4.2270 C.ar    1  UNL1        0.0137
     10 N          -0.6270    2.0510    5.2380 N.ar    1  UNL1       -0.3599
     11 C          -0.4550    0.7420    4.8540 C.ar    1  UNL1        0.0472
     12 C          -0.7030   -0.4420    5.5610 C.ar    1  UNL1       -0.0371
     13 C          -0.4330   -1.6520    4.9150 C.ar    1  UNL1       -0.0477
     14 C           0.0580   -1.6690    3.6080 C.ar    1  UNL1        0.0376
     15 C           0.3560   -2.9740    2.9700 C.2     1  UNL1        0.2469
     16 O           0.9710   -3.8100    3.6290 O.2     1  UNL1       -0.2700
     17 N          -0.0350   -3.1840    1.6500 N.am    1  UNL1       -0.2927
     18 C          -1.2180   -2.5400    1.0320 C.3     1  UNL1        0.0207
     19 C          -0.9330   -2.1060   -0.4220 C.3     1  UNL1        0.0059
     20 C          -0.2600   -3.2340   -1.1270 C.ar    1  UNL1        0.0511
     21 C           0.3420   -4.2870   -0.4640 C.ar    1  UNL1        0.0110
     22 C           0.7450   -5.1520   -1.4860 C.ar    1  UNL1        0.0547
     23 N           0.4230   -4.6940   -2.6950 N.ar    1  UNL1       -0.1742
     24 N          -0.1800   -3.4930   -2.4840 N.ar    1  UNL1       -0.2349
     25 C          -0.5580   -2.6660   -3.5780 C.ar    1  UNL1        0.0839
     26 C          -0.4320   -1.2700   -3.4500 C.ar    1  UNL1       -0.0348
     27 C          -0.7530   -0.4200   -4.5120 C.ar    1  UNL1       -0.0597
     28 C          -1.2000   -0.9500   -5.7160 C.ar    1  UNL1       -0.0603
     29 C          -1.3280   -2.3310   -5.8570 C.ar    1  UNL1       -0.0413
     30 C          -1.0110   -3.1960   -4.7990 C.ar    1  UNL1        0.0663
     31 CL         -1.3470   -4.8710   -5.0850 Cl      1  UNL1       -0.0813
     32 C           0.4400   -4.4220    1.0150 C.3     1  UNL1        0.0432
     33 C           0.3340   -0.4730    2.9290 C.ar    1  UNL1       -0.0398
     34 C           0.0520    0.7600    3.5540 C.ar    1  UNL1        0.0114
     35 H           3.4510    3.4580    0.4380 H       1  UNL1        0.0428
     36 H           3.1460    2.8120    2.0730 H       1  UNL1        0.0428
     37 H           4.1900    4.2300    1.8730 H       1  UNL1        0.0428
     38 H           3.2240    6.3980    1.7330 H       1  UNL1        0.0428
     39 H           1.4900    6.6110    1.4040 H       1  UNL1        0.0428
     40 H           2.5650    6.0220    0.1130 H       1  UNL1        0.0428
     41 H          -0.3290    3.9670    4.3550 H       1  UNL1        0.0814
     42 H          -0.9840    2.3430    6.1380 H       1  UNL1        0.1654
     43 H          -1.0860   -0.4300    6.5770 H       1  UNL1        0.0638
     44 H          -0.6030   -2.5900    5.4400 H       1  UNL1        0.0626
     45 H          -2.0240   -3.2860    1.0540 H       1  UNL1        0.0468
     46 H          -1.5780   -1.6900    1.6140 H       1  UNL1        0.0468
     47 H          -0.2650   -1.2380   -0.4010 H       1  UNL1        0.0344
     48 H          -1.8700   -1.8210   -0.9100 H       1  UNL1        0.0344
     49 H           1.2480   -6.1080   -1.4080 H       1  UNL1        0.0851
     50 H          -0.0260   -0.8140   -2.5520 H       1  UNL1        0.0639
     51 H          -0.6360    0.6560   -4.4010 H       1  UNL1        0.0618
     52 H          -1.4480   -0.2920   -6.5450 H       1  UNL1        0.0618
     53 H          -1.6920   -2.7340   -6.8010 H       1  UNL1        0.0633
     54 H           1.4740   -4.6200    1.3170 H       1  UNL1        0.0515
     55 H          -0.1920   -5.2450    1.3680 H       1  UNL1        0.0515
     56 H           0.7620   -0.4940    1.9300 H       1  UNL1        0.0632
@<TRIPOS>BOND
     1     1     2    1
     2     1    35    1
     3     1    36    1
     4     1    37    1
     5     2     3    1
     6     2     4   am
     7     3    38    1
     8     3    39    1
     9     3    40    1
    10     4     5    2
    11     4     6    1
    12     6     7    2
    13     6     8    1
    14     8     9   ar
    15     8    34   ar
    16     9    10   ar
    17     9    41    1
    18    10    11   ar
    19    10    42    1
    20    11    12   ar
    21    11    34   ar
    22    12    13   ar
    23    12    43    1
    24    13    14   ar
    25    13    44    1
    26    14    15    1
    27    14    33   ar
    28    15    16    2
    29    15    17   am
    30    17    18    1
    31    17    32    1
    32    18    19    1
    33    18    45    1
    34    18    46    1
    35    19    20    1
    36    19    47    1
    37    19    48    1
    38    20    21   ar
    39    20    24   ar
    40    21    22   ar
    41    21    32    1
    42    22    23   ar
    43    22    49    1
    44    23    24   ar
    45    24    25    1
    46    25    26   ar
    47    25    30   ar
    48    26    27   ar
    49    26    50    1
    50    27    28   ar
    51    27    51    1
    52    28    29   ar
    53    28    52    1
    54    29    30   ar
    55    29    53    1
    56    30    31    1
    57    32    54    1
    58    32    55    1
    59    33    34   ar
    60    33    56    1
@<TRIPOS>MOLECULE
AD3CC00548214-I00-C00
 58 60 0 0 0
SMALL
GASTEIGER

@<TRIPOS>ATOM
      1 C           0.9750   -3.5500    1.1070 C.3     1  UNL1        0.0790
      2 O           0.1550   -2.5210    1.6790 O.3     1  UNL1       -0.4914
      3 C           0.7930   -1.3020    1.5700 C.ar    1  UNL1        0.1634
      4 C           0.5920   -0.5070    0.4340 C.ar    1  UNL1        0.0789
      5 N          -0.3170   -0.9750   -0.5420 N.am    1  UNL1       -0.2660
      6 C          -0.5330   -0.4770   -1.8160 C.2     1  UNL1        0.3082
      7 O           0.1330    0.4050   -2.3410 O.2     1  UNL1       -0.2521
      8 N          -1.6120   -1.1250   -2.3980 N.am    1  UNL1       -0.2686
      9 C          -2.0770   -1.0220   -3.7360 C.ar    1  UNL1        0.0425
     10 C          -1.2880   -0.4220   -4.7270 C.ar    1  UNL1       -0.0398
     11 C          -1.7300   -0.3370   -6.0430 C.ar    1  UNL1       -0.0594
     12 C          -2.9690   -0.8590   -6.3940 C.ar    1  UNL1       -0.0539
     13 C          -3.7840   -1.4760   -5.4380 C.ar    1  UNL1       -0.0161
     14 C          -5.0280   -1.9970   -5.8310 C.ar    1  UNL1       -0.0540
     15 C          -5.8710   -2.6190   -4.9140 C.ar    1  UNL1       -0.0612
     16 C          -5.4790   -2.7250   -3.5880 C.ar    1  UNL1       -0.0611
     17 C          -4.2440   -2.2110   -3.1810 C.ar    1  UNL1       -0.0523
     18 C          -3.3540   -1.5720   -4.0860 C.ar    1  UNL1        0.0034
     19 C           1.2580    0.7200    0.3500 C.ar    1  UNL1       -0.0330
     20 C           2.1070    1.1870    1.3810 C.ar    1  UNL1       -0.0382
     21 C           2.8260    2.5410    1.2270 C.3     1  UNL1       -0.0126
     22 C           3.7100    2.5210   -0.0390 C.3     1  UNL1       -0.0560
     23 C           3.7480    2.8980    2.4160 C.3     1  UNL1       -0.0560
     24 C           1.7830    3.6710    1.1020 C.3     1  UNL1       -0.0560
     25 C           2.2420    0.3850    2.5280 C.ar    1  UNL1       -0.0320
     26 C           1.5800   -0.8400    2.6300 C.ar    1  UNL1        0.0913
     27 N           1.7100   -1.6340    3.8190 N.pl3   1  UNL1       -0.2173
     28 S           3.1860   -2.4200    4.0710 S.O2    1  UNL1        0.0404
     29 C           3.8040   -1.5300    5.4820 C.3     1  UNL1        0.0736
     30 O           4.0750   -2.2000    2.9530 O.2     1  UNL1       -0.1555
     31 O           2.8420   -3.7560    4.5090 O.2     1  UNL1       -0.1555
     32 H           1.1070   -3.3990    0.0310 H       1  UNL1        0.0660
     33 H           0.4590   -4.5030    1.2540 H       1  UNL1        0.0660
     34 H           1.9490   -3.6140    1.6000 H       1  UNL1        0.0660
     35 H          -0.7500   -1.8600   -0.3180 H       1  UNL1        0.1565
     36 H          -2.2240   -1.5790   -1.7440 H       1  UNL1        0.1564
     37 H          -0.3040   -0.0190   -4.5060 H       1  UNL1        0.0636
     38 H          -1.1030    0.1350   -6.7950 H       1  UNL1        0.0618
     39 H          -3.2920   -0.7800   -7.4300 H       1  UNL1        0.0624
     40 H          -5.3540   -1.9220   -6.8670 H       1  UNL1        0.0624
     41 H          -6.8300   -3.0160   -5.2360 H       1  UNL1        0.0618
     42 H          -6.1330   -3.2060   -2.8650 H       1  UNL1        0.0618
     43 H          -4.0000   -2.3210   -2.1300 H       1  UNL1        0.0624
     44 H           1.1120    1.3500   -0.5240 H       1  UNL1        0.0640
     45 H           4.4410    1.7040    0.0030 H       1  UNL1        0.0238
     46 H           4.2650    3.4600   -0.1490 H       1  UNL1        0.0238
     47 H           3.1230    2.3890   -0.9550 H       1  UNL1        0.0238
     48 H           4.2470    3.8600    2.2540 H       1  UNL1        0.0238
     49 H           4.5330    2.1460    2.5570 H       1  UNL1        0.0238
     50 H           3.1840    2.9840    3.3530 H       1  UNL1        0.0238
     51 H           1.1200    3.6940    1.9750 H       1  UNL1        0.0238
     52 H           1.1520    3.5570    0.2140 H       1  UNL1        0.0238
     53 H           2.2680    4.6510    1.0260 H       1  UNL1        0.0238
     54 H           2.8560    0.7070    3.3620 H       1  UNL1        0.0641
     55 H           0.9550   -2.3200    3.9120 H       1  UNL1        0.1734
     56 H           3.9820   -0.4910    5.2010 H       1  UNL1        0.0482
     57 H           3.0770   -1.6000    6.2930 H       1  UNL1        0.0482
     58 H           4.7440   -1.9960    5.7860 H       1  UNL1        0.0482
@<TRIPOS>BOND
     1     1     2    1
     2     1    32    1
     3     1    33    1
     4     1    34    1
     5     2     3    1
     6     3     4   ar
     7     3    26   ar
     8     4     5    1
     9     4    19   ar
    10     5     6   am
    11     5    35    1
    12     6     7    2
    13     6     8   am
    14     8     9    1
    15     8    36    1
    16     9    10   ar
    17     9    18   ar
    18    10    11   ar
    19    10    37    1
    20    11    12   ar
    21    11    38    1
    22    12    13   ar
    23    12    39    1
    24    13    14   ar
    25    13    18   ar
    26    14    15   ar
    27    14    40    1
    28    15    16   ar
    29    15    41    1
    30    16    17   ar
    31    16    42    1
    32    17    18   ar
    33    17    43    1
    34    19    20   ar
    35    19    44    1
    36    20    21    1
    37    20    25   ar
    38    21    22    1
    39    21    23    1
    40    21    24    1
    41    22    45    1
    42    22    46    1
    43    22    47    1
    44    23    48    1
    45    23    49    1
    46    23    50    1
    47    24    51    1
    48    24    52    1
    49    24    53    1
    50    25    26   ar
    51    25    54    1
    52    26    27    1
    53    28    27    1
    54    27    55    1
    55    28    29    1
    56    28    30    2
    57    28    31    2
    58    29    56    1
    59    29    57    1
    60    29    58    1
@<TRIPOS>MOLECULE
AD3CC00554853-I00-C00
 39 41 0 0 0
SMALL
GASTEIGER

@<TRIPOS>ATOM
      1 N           1.2440   -2.7360    1.0790 N.1     1  UNL1       -0.1908
      2 C           0.7460   -2.0830    0.2570 C.1     1  UNL1        0.1019
      3 C           0.2040   -1.3470   -0.8510 C.ar    1  UNL1        0.0837
      4 C          -0.0350    0.0120   -0.8740 C.ar    1  UNL1        0.0909
      5 N           0.0390    1.0350    0.0470 N.am    1  UNL1       -0.2627
      6 C          -0.1880    0.8440    1.3900 C.2     1  UNL1        0.3045
      7 O          -0.5870   -0.1870    1.9130 O.2     1  UNL1       -0.2525
      8 N           0.0570    2.0070    2.0940 N.am    1  UNL1       -0.2963
      9 C          -0.0670    2.0220    3.5450 C.3     1  UNL1        0.0246
     10 C           1.1460    1.4040    4.2380 C.3     1  UNL1       -0.0345
     11 C           2.1920    2.5140    4.2400 C.3     1  UNL1       -0.0513
     12 C           1.4130    3.8280    4.1940 C.3     1  UNL1       -0.0513
     13 C          -0.0630    3.4490    4.0840 C.3     1  UNL1       -0.0345
     14 S          -0.4870    0.5720   -2.4210 S.2     1  UNL1       -0.0768
     15 C          -0.4710   -1.0020   -3.0590 C.ar    1  UNL1       -0.0040
     16 C          -0.0830   -1.9480   -2.1280 C.ar    1  UNL1       -0.0179
     17 C           0.0520   -3.4010   -2.4900 C.3     1  UNL1       -0.0256
     18 C          -0.6670   -3.7330   -3.8070 C.3     1  UNL1       -0.0487
     19 C          -0.3730   -2.6880   -4.8920 C.3     1  UNL1       -0.0483
     20 C          -0.8530   -1.2890   -4.4780 C.3     1  UNL1       -0.0211
     21 H          -0.1740    1.9590   -0.3030 H       1  UNL1        0.1569
     22 H           0.7800    2.5890    1.6950 H       1  UNL1        0.1505
     23 H          -0.9880    1.4950    3.8150 H       1  UNL1        0.0499
     24 H           1.5170    0.4950    3.7530 H       1  UNL1        0.0283
     25 H           0.8880    1.1510    5.2740 H       1  UNL1        0.0283
     26 H           2.8400    2.4520    5.1200 H       1  UNL1        0.0266
     27 H           2.8330    2.4330    3.3540 H       1  UNL1        0.0266
     28 H           1.5970    4.4380    5.0850 H       1  UNL1        0.0266
     29 H           1.7250    4.4170    3.3240 H       1  UNL1        0.0266
     30 H          -0.6200    4.1520    3.4560 H       1  UNL1        0.0283
     31 H          -0.5130    3.4650    5.0850 H       1  UNL1        0.0283
     32 H           1.1190   -3.6360   -2.5900 H       1  UNL1        0.0314
     33 H          -0.3500   -4.0340   -1.6910 H       1  UNL1        0.0314
     34 H          -1.7500   -3.7750   -3.6330 H       1  UNL1        0.0268
     35 H          -0.3590   -4.7270   -4.1500 H       1  UNL1        0.0268
     36 H          -0.8570   -2.9770   -5.8320 H       1  UNL1        0.0269
     37 H           0.7080   -2.6640   -5.0830 H       1  UNL1        0.0269
     38 H          -0.4310   -0.5430   -5.1610 H       1  UNL1        0.0318
     39 H          -1.9460   -1.2390   -4.5670 H       1  UNL1        0.0318
@<TRIPOS>BOND
     1     1     2    3
     2     2     3    1
     3     3     4   ar
     4     3    16   ar
     5     4     5    1
     6     4    14   ar
     7     5     6   am
     8     5    21    1
     9     6     7    2
    10     6     8   am
    11     8     9    1
    12     8    22    1
    13     9    10    1
    14     9    13    1
    15     9    23    1
    16    10    11    1
    17    10    24    1
    18    10    25    1
    19    11    12    1
    20    11    26    1
    21    11    27    1
    22    12    13    1
    23    12    28    1
    24    12    29    1
    25    13    30    1
    26    13    31    1
    27    14    15   ar
    28    15    16   ar
    29    15    20    1
    30    16    17    1
    31    17    18    1
    32    17    32    1
    33    17    33    1
    34    18    19    1
    35    18    34    1
    36    18    35    1
    37    19    20    1
    38    19    36    1
    39    19    37    1
    40    20    38    1
    41    20    39    1
@<TRIPOS>MOLECULE
AD3CC00554854-I00-C00
 38 40 0 0 0
SMALL
GASTEIGER

@<TRIPOS>ATOM
      1 C          -0.6670   -5.4270    0.6420 C.3     1  UNL1       -0.0397
      2 C          -1.0380   -4.6770   -0.6040 C.ar    1  UNL1       -0.0486
      3 C          -1.9000   -5.2480   -1.5490 C.ar    1  UNL1       -0.0587
      4 C          -2.2660   -4.5420   -2.6990 C.ar    1  UNL1       -0.0597
      5 C          -1.7860   -3.2500   -2.9080 C.ar    1  UNL1       -0.0351
      6 C          -0.9490   -2.6680   -1.9540 C.ar    1  UNL1        0.1088
      7 S          -0.3270   -1.0250   -2.2070 S.O2    1  UNL1        0.0728
      8 O          -0.6390   -0.6250   -3.5630 O.2     1  UNL1       -0.1500
      9 O           1.0220   -0.9740   -1.6870 O.2     1  UNL1       -0.1500
     10 N          -1.3810   -0.1290   -1.2010 N.pl3   1  UNL1       -0.2085
     11 C          -0.7140    1.0470   -0.6130 C.ar    1  UNL1        0.1032
     12 S          -0.8520    2.5870   -1.3230 S.2     1  UNL1       -0.0758
     13 C           0.1080    3.2880   -0.1060 C.ar    1  UNL1       -0.0039
     14 C           0.5120    2.3720    0.8500 C.ar    1  UNL1       -0.0179
     15 C           0.0080    1.0590    0.5600 C.ar    1  UNL1        0.0847
     16 C           0.2090   -0.0950    1.3860 C.1     1  UNL1        0.1019
     17 N           0.3640   -1.0140    2.0780 N.1     1  UNL1       -0.1908
     18 C           1.3450    2.7790    2.0330 C.3     1  UNL1       -0.0256
     19 C           2.0000    4.1540    1.8250 C.3     1  UNL1       -0.0487
     20 C           1.0070    5.1750    1.2520 C.3     1  UNL1       -0.0483
     21 C           0.4730    4.7410   -0.1210 C.3     1  UNL1       -0.0211
     22 C          -0.5670   -3.3750   -0.8090 C.ar    1  UNL1       -0.0322
     23 H           0.3370   -5.1510    0.9790 H       1  UNL1        0.0278
     24 H          -0.6630   -6.5070    0.4620 H       1  UNL1        0.0278
     25 H          -1.3830   -5.2040    1.4390 H       1  UNL1        0.0278
     26 H          -2.2880   -6.2540   -1.3980 H       1  UNL1        0.0620
     27 H          -2.9240   -5.0040   -3.4310 H       1  UNL1        0.0618
     28 H          -2.0700   -2.7130   -3.8100 H       1  UNL1        0.0637
     29 H          -2.1380    0.1890   -1.8120 H       1  UNL1        0.1743
     30 H           0.6960    2.8170    2.9170 H       1  UNL1        0.0314
     31 H           2.1240    2.0340    2.2280 H       1  UNL1        0.0314
     32 H           2.4010    4.5150    2.7780 H       1  UNL1        0.0268
     33 H           2.8490    4.0550    1.1370 H       1  UNL1        0.0268
     34 H           1.4880    6.1560    1.1630 H       1  UNL1        0.0269
     35 H           0.1700    5.2920    1.9520 H       1  UNL1        0.0269
     36 H           1.2480    4.9030   -0.8800 H       1  UNL1        0.0318
     37 H          -0.3900    5.3620   -0.3890 H       1  UNL1        0.0318
     38 H           0.0970   -2.9170   -0.0780 H       1  UNL1        0.0640
@<TRIPOS>BOND
     1     1     2    1
     2     1    23    1
     3     1    24    1
     4     1    25    1
     5     2     3   ar
     6     2    22   ar
     7     3     4   ar
     8     3    26    1
     9     4     5   ar
    10     4    27    1
    11     5     6   ar
    12     5    28    1
    13     6     7    1
    14     6    22   ar
    15     7     8    2
    16     7     9    2
    17     7    10    1
    18    10    11    1
    19    10    29    1
    20    11    12   ar
    21    11    15   ar
    22    12    13   ar
    23    13    14   ar
    24    13    21    1
    25    14    15   ar
    26    14    18    1
    27    15    16    1
    28    16    17    3
    29    18    19    1
    30    18    30    1
    31    18    31    1
    32    19    20    1
    33    19    32    1
    34    19    33    1
    35    20    21    1
    36    20    34    1
    37    20    35    1
    38    21    36    1
    39    21    37    1
    40    22    38    1
@<TRIPOS>MOLECULE
AD3CC00554858-I00-C00
 48 52 0 0 0
SMALL
GASTEIGER

@<TRIPOS>ATOM
      1 N          -3.0510    0.9200   -2.3690 N.1     1  UNL1       -0.1908
      2 C          -2.1240    0.8540   -1.6720 C.1     1  UNL1        0.1019
      3 C          -1.0240    0.9490   -0.7540 C.ar    1  UNL1        0.0852
      4 C          -0.2620   -0.0870   -0.2560 C.ar    1  UNL1        0.0915
      5 N          -0.1650   -1.4500   -0.4320 N.am    1  UNL1       -0.2749
      6 C          -0.7720   -2.1720   -1.4320 C.2     1  UNL1        0.2492
      7 O          -1.4300   -1.7310   -2.3620 O.2     1  UNL1       -0.2698
      8 C          -0.4830   -3.6280   -1.3850 C.ar    1  UNL1        0.0447
      9 C           0.1200   -4.1700   -2.5280 C.ar    1  UNL1       -0.0490
     10 C           0.4880   -5.5090   -2.5500 C.ar    1  UNL1       -0.0605
     11 C           0.2500   -6.3090   -1.4330 C.ar    1  UNL1       -0.0540
     12 C          -0.3770   -5.7910   -0.2870 C.ar    1  UNL1       -0.0172
     13 C          -0.6220   -6.6220    0.8180 C.ar    1  UNL1       -0.0540
     14 C          -1.2660   -6.1370    1.9550 C.ar    1  UNL1       -0.0612
     15 C          -1.6850   -4.8140    1.9990 C.ar    1  UNL1       -0.0611
     16 C          -1.4460   -3.9720    0.9110 C.ar    1  UNL1       -0.0533
     17 C          -0.7720   -4.4300   -0.2480 C.ar    1  UNL1       -0.0058
     18 S           0.8570    0.4450    0.9150 S.2     1  UNL1       -0.0568
     19 C           0.4050    2.0640    0.7410 C.ar    1  UNL1        0.0805
     20 C          -0.6120    2.2110   -0.1860 C.ar    1  UNL1        0.0006
     21 C          -1.1960    3.5580   -0.4950 C.3     1  UNL1       -0.0227
     22 C          -0.1890    4.6590   -0.1710 C.3     1  UNL1       -0.0326
     23 C           0.3910    4.4770    1.2350 C.3     1  UNL1        0.0206
     24 N           0.9700    3.1350    1.4570 N.am    1  UNL1       -0.2652
     25 C           1.9680    2.9340    2.4290 C.2     1  UNL1        0.2232
     26 O           2.5850    1.9010    2.6560 O.2     1  UNL1       -0.2749
     27 C           2.3300    4.1250    3.2650 C.3     1  UNL1        0.0361
     28 C           1.3790    4.6560    4.3150 C.3     1  UNL1       -0.0412
     29 C           2.6220    3.9390    4.7400 C.3     1  UNL1       -0.0412
     30 H           0.4980   -1.9220    0.1740 H       1  UNL1        0.1557
     31 H           0.3080   -3.5430   -3.3980 H       1  UNL1        0.0625
     32 H           0.9600   -5.9320   -3.4330 H       1  UNL1        0.0618
     33 H           0.5480   -7.3550   -1.4690 H       1  UNL1        0.0624
     34 H          -0.3170   -7.6670    0.7990 H       1  UNL1        0.0624
     35 H          -1.4520   -6.7970    2.7990 H       1  UNL1        0.0618
     36 H          -2.2050   -4.4360    2.8760 H       1  UNL1        0.0618
     37 H          -1.8180   -2.9510    0.9750 H       1  UNL1        0.0624
     38 H          -1.4770    3.6290   -1.5520 H       1  UNL1        0.0315
     39 H          -2.1070    3.6960    0.1010 H       1  UNL1        0.0315
     40 H           0.6300    4.6300   -0.9010 H       1  UNL1        0.0284
     41 H          -0.6660    5.6420   -0.2580 H       1  UNL1        0.0284
     42 H           1.1540    5.2450    1.3910 H       1  UNL1        0.0469
     43 H          -0.3920    4.6210    1.9890 H       1  UNL1        0.0469
     44 H           2.9860    4.8250    2.7580 H       1  UNL1        0.0394
     45 H           1.3360    5.7280    4.4660 H       1  UNL1        0.0273
     46 H           0.4340    4.1460    4.4700 H       1  UNL1        0.0273
     47 H           2.5220    2.9430    5.1600 H       1  UNL1        0.0273
     48 H           3.4300    4.5190    5.1710 H       1  UNL1        0.0273
@<TRIPOS>BOND
     1     1     2    3
     2     2     3    1
     3     3     4   ar
     4     3    20   ar
     5     4     5    1
     6     4    18   ar
     7     5     6   am
     8     5    30    1
     9     6     7    2
    10     6     8    1
    11     8     9   ar
    12     8    17   ar
    13     9    10   ar
    14     9    31    1
    15    10    11   ar
    16    10    32    1
    17    11    12   ar
    18    11    33    1
    19    12    13   ar
    20    12    17   ar
    21    13    14   ar
    22    13    34    1
    23    14    15   ar
    24    14    35    1
    25    15    16   ar
    26    15    36    1
    27    16    17   ar
    28    16    37    1
    29    18    19   ar
    30    19    20   ar
    31    19    24    1
    32    20    21    1
    33    21    22    1
    34    21    38    1
    35    21    39    1
    36    22    23    1
    37    22    40    1
    38    22    41    1
    39    23    24    1
    40    23    42    1
    41    23    43    1
    42    24    25   am
    43    25    26    2
    44    25    27    1
    45    27    28    1
    46    27    29    1
    47    27    44    1
    48    28    29    1
    49    28    45    1
    50    28    46    1
    51    29    47    1
    52    29    48    1
@<TRIPOS>MOLECULE
AD3CC00571275-I00-C00
 38 41 0 0 0
SMALL
GASTEIGER

@<TRIPOS>ATOM
      1 C          -3.4930    2.1530    4.6060 C.3     1  UNL1        0.0820
      2 O          -2.5140    1.1640    4.2910 O.3     1  UNL1       -0.4644
      3 C          -2.5180    0.7730    2.9830 C.2     1  UNL1        0.3407
      4 O          -3.2810    1.2210    2.1350 O.2     1  UNL1       -0.2449
      5 C          -1.5000   -0.2390    2.6960 C.ar    1  UNL1        0.0820
      6 C          -0.5890   -0.7430    3.6080 C.ar    1  UNL1        0.0442
      7 N           0.1770   -1.6830    2.9900 N.ar    1  UNL1       -0.2353
      8 N           1.0800   -2.4650    3.6040 N.ar    1  UNL1       -0.1549
      9 C           1.6770   -3.3080    2.8230 C.ar    1  UNL1        0.1373
     10 N           1.5130   -3.4280    1.4670 N.ar    1  UNL1       -0.2314
     11 C           0.6780   -2.6230    0.8910 C.ar    1  UNL1        0.1040
     12 C           0.6070   -2.6610   -0.5530 C.ar    1  UNL1        0.0709
     13 C           0.5170   -3.8210   -1.3030 C.ar    1  UNL1        0.2007
     14 O           0.4920   -5.1040   -0.9640 O.3     1  UNL1       -0.4931
     15 N           0.4410   -3.4770   -2.6220 N.ar    1  UNL1       -0.3253
     16 C           0.5790   -2.1180   -2.7720 C.ar    1  UNL1        0.0509
     17 C           0.6130   -1.3390   -3.9360 C.ar    1  UNL1       -0.0237
     18 C           0.8000    0.0370   -3.7820 C.ar    1  UNL1        0.0199
     19 BR          0.8550    1.1380   -5.3210 Br      1  UNL1       -0.0502
     20 C           0.9530    0.6130   -2.5240 C.ar    1  UNL1       -0.0471
     21 C           0.9140   -0.1840   -1.3730 C.ar    1  UNL1       -0.0508
     22 C           0.7080   -1.5760   -1.4910 C.ar    1  UNL1        0.0127
     23 C          -0.1300   -1.7330    1.6620 C.ar    1  UNL1        0.0952
     24 C          -1.2480   -0.9300    1.4520 C.ar    1  UNL1       -0.0075
     25 C          -2.0780   -0.7870    0.2190 C.3     1  UNL1       -0.0368
     26 H          -4.5010    1.7690    4.4200 H       1  UNL1        0.0661
     27 H          -3.4050    2.3900    5.6700 H       1  UNL1        0.0661
     28 H          -3.3130    3.0680    4.0330 H       1  UNL1        0.0661
     29 H          -0.4440   -0.5290    4.6590 H       1  UNL1        0.0838
     30 H           2.4120   -3.9950    3.2760 H       1  UNL1        0.1065
     31 H           0.7270   -5.1500   -0.0160 H       1  UNL1        0.2937
     32 H           0.3540   -4.1440   -3.3750 H       1  UNL1        0.1688
     33 H           0.5070   -1.7900   -4.9170 H       1  UNL1        0.0649
     34 H           1.1040    1.6850   -2.4220 H       1  UNL1        0.0629
     35 H           1.0400    0.2790   -0.3970 H       1  UNL1        0.0625
     36 H          -3.1420   -0.7460    0.4740 H       1  UNL1        0.0278
     37 H          -1.8190    0.1300   -0.3160 H       1  UNL1        0.0278
     38 H          -1.9630   -1.6410   -0.4530 H       1  UNL1        0.0278
@<TRIPOS>BOND
     1     1     2    1
     2     1    26    1
     3     1    27    1
     4     1    28    1
     5     2     3    1
     6     3     4    2
     7     3     5    1
     8     5     6   ar
     9     5    24   ar
    10     6     7   ar
    11     6    29    1
    12     7     8   ar
    13     7    23   ar
    14     8     9   ar
    15     9    10   ar
    16     9    30    1
    17    10    11   ar
    18    11    12    1
    19    11    23   ar
    20    12    13   ar
    21    12    22   ar
    22    13    14    1
    23    13    15   ar
    24    14    31    1
    25    15    16   ar
    26    15    32    1
    27    16    17   ar
    28    16    22   ar
    29    17    18   ar
    30    17    33    1
    31    18    19    1
    32    18    20   ar
    33    20    21   ar
    34    20    34    1
    35    21    22   ar
    36    21    35    1
    37    23    24   ar
    38    24    25    1
    39    25    36    1
    40    25    37    1
    41    25    38    1
@<TRIPOS>MOLECULE
AD3CC00571278-I00-C00
 42 44 0 0 0
SMALL
GASTEIGER

@<TRIPOS>ATOM
      1 C          -1.0220    4.4570   -5.5930 C.3     1  UNL1        0.0820
      2 O          -1.3280    3.7530   -4.3900 O.3     1  UNL1       -0.4644
      3 C          -0.3500    2.8910   -3.9830 C.2     1  UNL1        0.3407
      4 O           0.7070    2.7240   -4.5800 O.2     1  UNL1       -0.2449
      5 C          -0.6970    2.1910   -2.7450 C.ar    1  UNL1        0.0821
      6 C          -1.8410    2.4170   -1.9980 C.ar    1  UNL1        0.0442
      7 N          -1.8300    1.6010   -0.9080 N.ar    1  UNL1       -0.2341
      8 N          -2.8040    1.5300    0.0050 N.ar    1  UNL1       -0.1548
      9 C          -2.5630    0.6860    0.9550 C.ar    1  UNL1        0.1388
     10 N          -1.4390   -0.0800    1.1090 N.ar    1  UNL1       -0.2167
     11 C          -0.4770   -0.0160    0.2340 C.ar    1  UNL1        0.1506
     12 N           0.7020   -0.7170    0.3890 N.pl3   1  UNL1       -0.2975
     13 C           1.0300   -1.7380    1.3060 C.ar    1  UNL1        0.0361
     14 C           0.0420   -2.5230    1.9240 C.ar    1  UNL1       -0.0281
     15 C           0.3720   -3.5130    2.8600 C.ar    1  UNL1        0.0383
     16 C          -0.6650   -4.3450    3.5250 C.2     1  UNL1        0.2416
     17 N          -1.9330   -3.8370    3.5950 N.am    1  UNL1       -0.3253
     18 O          -0.3950   -5.4280    4.0290 O.2     1  UNL1       -0.2704
     19 C           1.7110   -3.7490    3.1700 C.ar    1  UNL1       -0.0493
     20 C           2.7090   -2.9830    2.5720 C.ar    1  UNL1       -0.0564
     21 C           2.3830   -1.9710    1.6510 C.ar    1  UNL1       -0.0292
     22 C           3.5070   -1.1660    1.0520 C.3     1  UNL1       -0.0380
     23 C          -0.6810    0.8660   -0.8930 C.ar    1  UNL1        0.1090
     24 C           0.0330    1.1520   -2.0550 C.ar    1  UNL1       -0.0063
     25 C           1.3020    0.5230   -2.5220 C.3     1  UNL1       -0.0368
     26 H          -0.8870    3.7570   -6.4240 H       1  UNL1        0.0661
     27 H          -0.1300    5.0780   -5.4590 H       1  UNL1        0.0661
     28 H          -1.8660    5.1120   -5.8270 H       1  UNL1        0.0661
     29 H          -2.6690    3.0950   -2.1560 H       1  UNL1        0.0838
     30 H          -3.3310    0.5650    1.7390 H       1  UNL1        0.1066
     31 H           1.4790   -0.3990   -0.1680 H       1  UNL1        0.1536
     32 H          -0.9960   -2.3950    1.6370 H       1  UNL1        0.0644
     33 H          -2.5880   -4.3590    4.1620 H       1  UNL1        0.1453
     34 H          -2.1280   -2.8580    3.4390 H       1  UNL1        0.1453
     35 H           1.9800   -4.5270    3.8830 H       1  UNL1        0.0625
     36 H           3.7460   -3.1790    2.8350 H       1  UNL1        0.0621
     37 H           4.4730   -1.4280    1.4950 H       1  UNL1        0.0278
     38 H           3.3470   -0.0970    1.2310 H       1  UNL1        0.0278
     39 H           3.5730   -1.3520   -0.0240 H       1  UNL1        0.0278
     40 H           1.3040   -0.5520   -2.3170 H       1  UNL1        0.0278
     41 H           1.4400    0.6240   -3.6010 H       1  UNL1        0.0278
     42 H           2.1600    0.9810   -2.0190 H       1  UNL1        0.0278
@<TRIPOS>BOND
     1     1     2    1
     2     1    26    1
     3     1    27    1
     4     1    28    1
     5     2     3    1
     6     3     4    2
     7     3     5    1
     8     5     6   ar
     9     5    24   ar
    10     6     7   ar
    11     6    29    1
    12     7     8   ar
    13     7    23   ar
    14     8     9   ar
    15     9    10   ar
    16     9    30    1
    17    10    11   ar
    18    11    12    1
    19    11    23   ar
    20    12    13    1
    21    12    31    1
    22    13    14   ar
    23    13    21   ar
    24    14    15   ar
    25    14    32    1
    26    15    16    1
    27    15    19   ar
    28    16    17   am
    29    16    18    2
    30    17    33    1
    31    17    34    1
    32    19    20   ar
    33    19    35    1
    34    20    21   ar
    35    20    36    1
    36    21    22    1
    37    22    37    1
    38    22    38    1
    39    22    39    1
    40    23    24   ar
    41    24    25    1
    42    25    40    1
    43    25    41    1
    44    25    42    1
@<TRIPOS>MOLECULE
AD3CC00571286-I00-C00
 60 63 0 0 0
SMALL
GASTEIGER

@<TRIPOS>ATOM
      1 C           2.6520    3.2680   -2.3600 C.3     1  UNL1        0.0622
      2 O           2.1060    2.2420   -3.1820 O.3     1  UNL1       -0.2829
      3 N           0.7180    2.1440   -2.9080 N.am    1  UNL1       -0.1909
      4 C          -0.0800    2.7050   -3.8900 C.2     1  UNL1        0.2667
      5 O           0.3110    3.4500   -4.7820 O.2     1  UNL1       -0.2681
      6 C          -1.5160    2.3200   -3.8350 C.ar    1  UNL1        0.0405
      7 C          -2.2400    2.2660   -5.0260 C.ar    1  UNL1       -0.0492
      8 C          -3.5840    1.8980   -5.0070 C.ar    1  UNL1       -0.0564
      9 C          -4.2230    1.5820   -3.7970 C.ar    1  UNL1       -0.0292
     10 C          -5.6710    1.1690   -3.8230 C.3     1  UNL1       -0.0380
     11 C          -3.5030    1.6560   -2.5830 C.ar    1  UNL1        0.0361
     12 N          -4.1700    1.3480   -1.3640 N.pl3   1  UNL1       -0.2975
     13 C          -3.5400    1.2230   -0.1460 C.ar    1  UNL1        0.1506
     14 N          -3.9280    2.0380    0.7960 N.ar    1  UNL1       -0.2167
     15 C          -3.2950    2.0080    2.0120 C.ar    1  UNL1        0.1388
     16 N          -2.3080    1.2430    2.3570 N.ar    1  UNL1       -0.1548
     17 N          -1.9350    0.3780    1.4040 N.ar    1  UNL1       -0.2342
     18 C          -0.9250   -0.5320    1.5220 C.ar    1  UNL1        0.0423
     19 C          -0.8840   -1.3090    0.3750 C.ar    1  UNL1        0.0598
     20 C           0.0530   -2.3990    0.0850 C.2     1  UNL1        0.2463
     21 O           0.1870   -2.8590   -1.0440 O.2     1  UNL1       -0.2701
     22 N           0.7610   -2.8640    1.1670 N.am    1  UNL1       -0.3047
     23 C           1.6920   -3.9720    1.0630 C.3     1  UNL1        0.0458
     24 C           0.9530   -5.3130    0.9980 C.3     1  UNL1       -0.0424
     25 C           2.6890   -3.8930    2.2060 C.ar    1  UNL1       -0.0275
     26 C           2.3690   -4.3140    3.5070 C.ar    1  UNL1       -0.0568
     27 C           3.3010   -4.2010    4.5420 C.ar    1  UNL1       -0.0614
     28 C           4.5580   -3.6560    4.2950 C.ar    1  UNL1       -0.0617
     29 C           4.8860   -3.2200    3.0140 C.ar    1  UNL1       -0.0614
     30 C           3.9570   -3.3330    1.9770 C.ar    1  UNL1       -0.0568
     31 C          -1.9460   -0.8200   -0.4750 C.ar    1  UNL1       -0.0081
     32 C          -2.3390   -1.4060   -1.7890 C.3     1  UNL1       -0.0368
     33 C          -2.5100    0.2720    0.1750 C.ar    1  UNL1        0.1090
     34 C          -2.1520    2.0370   -2.6190 C.ar    1  UNL1       -0.0281
     35 H           3.7280    3.3200   -2.5450 H       1  UNL1        0.0547
     36 H           2.2080    4.2370   -2.6090 H       1  UNL1        0.0547
     37 H           2.4890    3.0380   -1.3020 H       1  UNL1        0.0547
     38 H           0.4420    1.2450   -2.5250 H       1  UNL1        0.1828
     39 H          -1.7580    2.5050   -5.9720 H       1  UNL1        0.0625
     40 H          -4.1300    1.8540   -5.9480 H       1  UNL1        0.0621
     41 H          -6.2860    1.9170   -3.3140 H       1  UNL1        0.0278
     42 H          -6.0430    1.0710   -4.8480 H       1  UNL1        0.0278
     43 H          -5.7990    0.1960   -3.3360 H       1  UNL1        0.0278
     44 H          -4.9640    1.9790   -1.2730 H       1  UNL1        0.1536
     45 H          -3.6680    2.7280    2.7590 H       1  UNL1        0.1066
     46 H          -0.3260   -0.5380    2.4220 H       1  UNL1        0.0838
     47 H           0.5440   -2.5170    2.0880 H       1  UNL1        0.1496
     48 H           2.2350   -3.8650    0.1140 H       1  UNL1        0.0545
     49 H           0.3400   -5.3760    0.0930 H       1  UNL1        0.0251
     50 H           0.2760   -5.4500    1.8490 H       1  UNL1        0.0251
     51 H           1.6580   -6.1510    0.9840 H       1  UNL1        0.0251
     52 H           1.3920   -4.7330    3.7320 H       1  UNL1        0.0621
     53 H           3.0420   -4.5370    5.5440 H       1  UNL1        0.0618
     54 H           5.2820   -3.5690    5.1010 H       1  UNL1        0.0618
     55 H           5.8660   -2.7890    2.8200 H       1  UNL1        0.0618
     56 H           4.2300   -2.9770    0.9850 H       1  UNL1        0.0621
     57 H          -3.3830   -1.1900   -2.0300 H       1  UNL1        0.0278
     58 H          -1.7000   -1.0200   -2.5880 H       1  UNL1        0.0278
     59 H          -2.2500   -2.4970   -1.7720 H       1  UNL1        0.0278
     60 H          -1.5930    2.1460   -1.6940 H       1  UNL1        0.0644
@<TRIPOS>BOND
     1     1     2    1
     2     1    35    1
     3     1    36    1
     4     1    37    1
     5     2     3    1
     6     3     4   am
     7     3    38    1
     8     4     5    2
     9     4     6    1
    10     6     7   ar
    11     6    34   ar
    12     7     8   ar
    13     7    39    1
    14     8     9   ar
    15     8    40    1
    16     9    10    1
    17     9    11   ar
    18    10    41    1
    19    10    42    1
    20    10    43    1
    21    11    12    1
    22    11    34   ar
    23    12    13    1
    24    12    44    1
    25    13    14   ar
    26    13    33   ar
    27    14    15   ar
    28    15    16   ar
    29    15    45    1
    30    16    17   ar
    31    17    18   ar
    32    17    33   ar
    33    18    19   ar
    34    18    46    1
    35    19    20    1
    36    19    31   ar
    37    20    21    2
    38    20    22   am
    39    22    23    1
    40    22    47    1
    41    23    24    1
    42    23    25    1
    43    23    48    1
    44    24    49    1
    45    24    50    1
    46    24    51    1
    47    25    26   ar
    48    25    30   ar
    49    26    27   ar
    50    26    52    1
    51    27    28   ar
    52    27    53    1
    53    28    29   ar
    54    28    54    1
    55    29    30   ar
    56    29    55    1
    57    30    56    1
    58    31    32    1
    59    31    33   ar
    60    32    57    1
    61    32    58    1
    62    32    59    1
    63    34    60    1
@<TRIPOS>MOLECULE
AD3CC00571286-I00-C00
 60 63 0 0 0
SMALL
GASTEIGER

@<TRIPOS>ATOM
      1 C           2.6520    3.2680   -2.3600 C.3     1  UNL1        0.0622
      2 O           2.1060    2.2420   -3.1820 O.3     1  UNL1       -0.2829
      3 N           0.7180    2.1440   -2.9080 N.am    1  UNL1       -0.1909
      4 C          -0.0800    2.7050   -3.8900 C.2     1  UNL1        0.2667
      5 O           0.3110    3.4500   -4.7820 O.2     1  UNL1       -0.2681
      6 C          -1.5160    2.3200   -3.8350 C.ar    1  UNL1        0.0405
      7 C          -2.2400    2.2660   -5.0260 C.ar    1  UNL1       -0.0492
      8 C          -3.5840    1.8980   -5.0070 C.ar    1  UNL1       -0.0564
      9 C          -4.2230    1.5820   -3.7970 C.ar    1  UNL1       -0.0292
     10 C          -5.6710    1.1690   -3.8230 C.3     1  UNL1       -0.0380
     11 C          -3.5030    1.6560   -2.5830 C.ar    1  UNL1        0.0361
     12 N          -4.1700    1.3480   -1.3640 N.pl3   1  UNL1       -0.2975
     13 C          -3.5400    1.2230   -0.1460 C.ar    1  UNL1        0.1506
     14 N          -3.9280    2.0380    0.7960 N.ar    1  UNL1       -0.2167
     15 C          -3.2950    2.0080    2.0120 C.ar    1  UNL1        0.1388
     16 N          -2.3080    1.2430    2.3570 N.ar    1  UNL1       -0.1548
     17 N          -1.9350    0.3780    1.4040 N.ar    1  UNL1       -0.2342
     18 C          -0.9250   -0.5320    1.5220 C.ar    1  UNL1        0.0423
     19 C          -0.8840   -1.3090    0.3750 C.ar    1  UNL1        0.0598
     20 C           0.0530   -2.3990    0.0850 C.2     1  UNL1        0.2463
     21 O           0.1870   -2.8590   -1.0440 O.2     1  UNL1       -0.2701
     22 N           0.7610   -2.8640    1.1670 N.am    1  UNL1       -0.3047
     23 C           1.6920   -3.9720    1.0630 C.3     1  UNL1        0.0458
     24 C           0.9530   -5.3130    0.9980 C.3     1  UNL1       -0.0424
     25 C           2.6890   -3.8930    2.2060 C.ar    1  UNL1       -0.0275
     26 C           2.3690   -4.3140    3.5070 C.ar    1  UNL1       -0.0568
     27 C           3.3010   -4.2010    4.5420 C.ar    1  UNL1       -0.0614
     28 C           4.5580   -3.6560    4.2950 C.ar    1  UNL1       -0.0617
     29 C           4.8860   -3.2200    3.0140 C.ar    1  UNL1       -0.0614
     30 C           3.9570   -3.3330    1.9770 C.ar    1  UNL1       -0.0568
     31 C          -1.9460   -0.8200   -0.4750 C.ar    1  UNL1       -0.0081
     32 C          -2.3390   -1.4060   -1.7890 C.3     1  UNL1       -0.0368
     33 C          -2.5100    0.2720    0.1750 C.ar    1  UNL1        0.1090
     34 C          -2.1520    2.0370   -2.6190 C.ar    1  UNL1       -0.0281
     35 H           3.7280    3.3200   -2.5450 H       1  UNL1        0.0547
     36 H           2.2080    4.2370   -2.6090 H       1  UNL1        0.0547
     37 H           2.4890    3.0380   -1.3020 H       1  UNL1        0.0547
     38 H           0.4420    1.2450   -2.5250 H       1  UNL1        0.1828
     39 H          -1.7580    2.5050   -5.9720 H       1  UNL1        0.0625
     40 H          -4.1300    1.8540   -5.9480 H       1  UNL1        0.0621
     41 H          -6.2860    1.9170   -3.3140 H       1  UNL1        0.0278
     42 H          -6.0430    1.0710   -4.8480 H       1  UNL1        0.0278
     43 H          -5.7990    0.1960   -3.3360 H       1  UNL1        0.0278
     44 H          -4.9640    1.9790   -1.2730 H       1  UNL1        0.1536
     45 H          -3.6680    2.7280    2.7590 H       1  UNL1        0.1066
     46 H          -0.3260   -0.5380    2.4220 H       1  UNL1        0.0838
     47 H           0.5440   -2.5170    2.0880 H       1  UNL1        0.1496
     48 H           2.2350   -3.8650    0.1140 H       1  UNL1        0.0545
     49 H           0.3400   -5.3760    0.0930 H       1  UNL1        0.0251
     50 H           0.2760   -5.4500    1.8490 H       1  UNL1        0.0251
     51 H           1.6580   -6.1510    0.9840 H       1  UNL1        0.0251
     52 H           1.3920   -4.7330    3.7320 H       1  UNL1        0.0621
     53 H           3.0420   -4.5370    5.5440 H       1  UNL1        0.0618
     54 H           5.2820   -3.5690    5.1010 H       1  UNL1        0.0618
     55 H           5.8660   -2.7890    2.8200 H       1  UNL1        0.0618
     56 H           4.2300   -2.9770    0.9850 H       1  UNL1        0.0621
     57 H          -3.3830   -1.1900   -2.0300 H       1  UNL1        0.0278
     58 H          -1.7000   -1.0200   -2.5880 H       1  UNL1        0.0278
     59 H          -2.2500   -2.4970   -1.7720 H       1  UNL1        0.0278
     60 H          -1.5930    2.1460   -1.6940 H       1  UNL1        0.0644
@<TRIPOS>BOND
     1     1     2    1
     2     1    35    1
     3     1    36    1
     4     1    37    1
     5     2     3    1
     6     3     4   am
     7     3    38    1
     8     4     5    2
     9     4     6    1
    10     6     7   ar
    11     6    34   ar
    12     7     8   ar
    13     7    39    1
    14     8     9   ar
    15     8    40    1
    16     9    10    1
    17     9    11   ar
    18    10    41    1
    19    10    42    1
    20    10    43    1
    21    11    12    1
    22    11    34   ar
    23    12    13    1
    24    12    44    1
    25    13    14   ar
    26    13    33   ar
    27    14    15   ar
    28    15    16   ar
    29    15    45    1
    30    16    17   ar
    31    17    18   ar
    32    17    33   ar
    33    18    19   ar
    34    18    46    1
    35    19    20    1
    36    19    31   ar
    37    20    21    2
    38    20    22   am
    39    22    23    1
    40    22    47    1
    41    23    24    1
    42    23    25    1
    43    23    48    1
    44    24    49    1
    45    24    50    1
    46    24    51    1
    47    25    26   ar
    48    25    30   ar
    49    26    27   ar
    50    26    52    1
    51    27    28   ar
    52    27    53    1
    53    28    29   ar
    54    28    54    1
    55    29    30   ar
    56    29    55    1
    57    30    56    1
    58    31    32    1
    59    31    33   ar
    60    32    57    1
    61    32    58    1
    62    32    59    1
    63    34    60    1
@<TRIPOS>MOLECULE
AD3CC00571317-I00-C00
 59 61 0 0 0
SMALL
GASTEIGER

@<TRIPOS>ATOM
      1 C           1.0130   -5.6430    4.0930 C.3     1  UNL1       -0.0639
      2 C           0.1360   -5.0930    5.2080 C.3     1  UNL1       -0.0402
      3 C          -0.8750   -4.0550    4.7250 C.3     1  UNL1        0.0116
      4 N          -0.2440   -2.8230    4.3020 N.am    1  UNL1       -0.3113
      5 C           0.0010   -2.5360    2.9760 C.2     1  UNL1        0.2459
      6 O          -0.3300   -3.2840    2.0620 O.2     1  UNL1       -0.2701
      7 C           0.7030   -1.2700    2.7340 C.ar    1  UNL1        0.0598
      8 C           0.8550   -0.2240    3.6300 C.ar    1  UNL1        0.0423
      9 N           1.5630    0.7750    3.0260 N.ar    1  UNL1       -0.2342
     10 N           1.9500    1.9110    3.6230 N.ar    1  UNL1       -0.1548
     11 C           2.6190    2.7050    2.8500 C.ar    1  UNL1        0.1388
     12 N           2.9170    2.5090    1.5260 N.ar    1  UNL1       -0.2167
     13 C           2.5070    1.4210    0.9330 C.ar    1  UNL1        0.1506
     14 N           2.7980    1.3120   -0.4080 N.pl3   1  UNL1       -0.2974
     15 C           1.8200    1.2120   -1.4390 C.ar    1  UNL1        0.0371
     16 C           0.4440    1.3660   -1.1880 C.ar    1  UNL1       -0.0189
     17 C          -0.5050    1.2650   -2.2150 C.ar    1  UNL1        0.0382
     18 N          -1.8560    1.4210   -1.8600 N.am    1  UNL1       -0.2511
     19 C          -2.9590    1.3780   -2.6640 C.2     1  UNL1        0.4048
     20 O          -3.0040    1.2080   -3.8720 O.2     1  UNL1       -0.2261
     21 O          -4.0530    1.5660   -1.8770 O.3     1  UNL1       -0.4474
     22 C          -5.3290    1.5480   -2.5450 C.3     1  UNL1        0.0991
     23 C          -5.6250    2.9300   -3.1160 C.3     1  UNL1       -0.0279
     24 C          -6.3730    1.1610   -1.5050 C.3     1  UNL1       -0.0279
     25 C          -0.0710    1.0180   -3.5140 C.ar    1  UNL1       -0.0400
     26 C           1.2910    0.8650   -3.7840 C.ar    1  UNL1       -0.0553
     27 C           2.2440    0.9540   -2.7590 C.ar    1  UNL1       -0.0292
     28 C           3.6980    0.7620   -3.0940 C.3     1  UNL1       -0.0380
     29 C           1.8230    0.4410    1.7330 C.ar    1  UNL1        0.1090
     30 C           1.3660   -0.8540    1.5190 C.ar    1  UNL1       -0.0081
     31 C           1.5200   -1.6880    0.2910 C.3     1  UNL1       -0.0368
     32 H           1.6600   -6.4370    4.4820 H       1  UNL1        0.0230
     33 H           1.6580   -4.8660    3.6720 H       1  UNL1        0.0230
     34 H           0.4060   -6.0660    3.2870 H       1  UNL1        0.0230
     35 H           0.7740   -4.6610    5.9880 H       1  UNL1        0.0278
     36 H          -0.4110   -5.9270    5.6640 H       1  UNL1        0.0278
     37 H          -1.5430   -3.7900    5.5520 H       1  UNL1        0.0462
     38 H          -1.4910   -4.4620    3.9160 H       1  UNL1        0.0462
     39 H           0.1430   -2.2190    5.0100 H       1  UNL1        0.1490
     40 H           0.5220   -0.0890    4.6490 H       1  UNL1        0.0838
     41 H           2.9860    3.6510    3.2830 H       1  UNL1        0.1066
     42 H           3.4460    2.0500   -0.6730 H       1  UNL1        0.1536
     43 H           0.1000    1.5750   -0.1800 H       1  UNL1        0.0655
     44 H          -2.0780    1.5740   -0.8860 H       1  UNL1        0.1582
     45 H          -5.3370    0.7940   -3.3410 H       1  UNL1        0.0729
     46 H          -4.8780    3.2120   -3.8660 H       1  UNL1        0.0265
     47 H          -5.5850    3.6950   -2.3320 H       1  UNL1        0.0265
     48 H          -6.6120    2.9610   -3.5870 H       1  UNL1        0.0265
     49 H          -6.1430    0.1770   -1.0830 H       1  UNL1        0.0265
     50 H          -6.3780    1.8680   -0.6680 H       1  UNL1        0.0265
     51 H          -7.3760    1.1270   -1.9410 H       1  UNL1        0.0265
     52 H          -0.7670    0.9320   -4.3430 H       1  UNL1        0.0636
     53 H           1.5990    0.6660   -4.8080 H       1  UNL1        0.0621
     54 H           4.1270   -0.0400   -2.4840 H       1  UNL1        0.0278
     55 H           3.8370    0.4840   -4.1440 H       1  UNL1        0.0278
     56 H           4.2520    1.6900   -2.9190 H       1  UNL1        0.0278
     57 H           1.6700   -2.7410    0.5490 H       1  UNL1        0.0278
     58 H           0.6280   -1.6100   -0.3380 H       1  UNL1        0.0278
     59 H           2.3940   -1.3890   -0.2920 H       1  UNL1        0.0278
@<TRIPOS>BOND
     1     1     2    1
     2     1    32    1
     3     1    33    1
     4     1    34    1
     5     2     3    1
     6     2    35    1
     7     2    36    1
     8     3     4    1
     9     3    37    1
    10     3    38    1
    11     4     5   am
    12     4    39    1
    13     5     6    2
    14     5     7    1
    15     7     8   ar
    16     7    30   ar
    17     8     9   ar
    18     8    40    1
    19     9    10   ar
    20     9    29   ar
    21    10    11   ar
    22    11    12   ar
    23    11    41    1
    24    12    13   ar
    25    13    14    1
    26    13    29   ar
    27    14    15    1
    28    14    42    1
    29    15    16   ar
    30    15    27   ar
    31    16    17   ar
    32    16    43    1
    33    17    18    1
    34    17    25   ar
    35    18    19   am
    36    18    44    1
    37    19    20    2
    38    19    21    1
    39    21    22    1
    40    22    23    1
    41    22    24    1
    42    22    45    1
    43    23    46    1
    44    23    47    1
    45    23    48    1
    46    24    49    1
    47    24    50    1
    48    24    51    1
    49    25    26   ar
    50    25    52    1
    51    26    27   ar
    52    26    53    1
    53    27    28    1
    54    28    54    1
    55    28    55    1
    56    28    56    1
    57    29    30   ar
    58    30    31    1
    59    31    57    1
    60    31    58    1
    61    31    59    1
@<TRIPOS>MOLECULE
AD3CC00571327-I00-C00
 52 54 0 0 0
SMALL
GASTEIGER

@<TRIPOS>ATOM
      1 C           3.8940    3.9270    2.3360 C.3     1  UNL1       -0.0639
      2 C           2.7970    3.0870    1.7040 C.3     1  UNL1       -0.0402
      3 C           3.2430    2.4920    0.3750 C.3     1  UNL1        0.0116
      4 N           2.1950    1.6940   -0.2170 N.am    1  UNL1       -0.3113
      5 C           2.2830    1.2930   -1.5350 C.2     1  UNL1        0.2459
      6 O           3.1530    1.6750   -2.3100 O.2     1  UNL1       -0.2701
      7 C           1.2780    0.3020   -1.8990 C.ar    1  UNL1        0.0598
      8 C           1.5260   -0.7980   -2.6990 C.ar    1  UNL1        0.0423
      9 N           0.3990   -1.5620   -2.7440 N.ar    1  UNL1       -0.2342
     10 N           0.2600   -2.6970   -3.4440 N.ar    1  UNL1       -0.1548
     11 C          -0.9010   -3.2530   -3.3080 C.ar    1  UNL1        0.1388
     12 N          -1.9330   -2.8300   -2.5100 N.ar    1  UNL1       -0.2167
     13 C          -1.7860   -1.7440   -1.7980 C.ar    1  UNL1        0.1506
     14 N          -2.8460   -1.4290   -0.9770 N.pl3   1  UNL1       -0.2974
     15 C          -2.8000   -1.2790    0.4400 C.ar    1  UNL1        0.0371
     16 C          -1.5960   -1.2470    1.1660 C.ar    1  UNL1       -0.0190
     17 C          -1.5730   -1.0210    2.5470 C.ar    1  UNL1        0.0351
     18 N          -0.3830   -0.9250    3.2980 N.am    1  UNL1       -0.2857
     19 C           0.8780   -0.6370    2.8060 C.2     1  UNL1        0.2141
     20 C           1.9400   -0.6910    3.8760 C.3     1  UNL1        0.0125
     21 O           1.1610   -0.3050    1.6590 O.2     1  UNL1       -0.2758
     22 C          -2.7800   -0.8970    3.2330 C.ar    1  UNL1       -0.0401
     23 C          -3.9880   -0.9150    2.5370 C.ar    1  UNL1       -0.0553
     24 C          -4.0100   -1.0730    1.1420 C.ar    1  UNL1       -0.0292
     25 C          -5.3410   -1.0440    0.4360 C.3     1  UNL1       -0.0380
     26 C          -0.5700   -1.0000   -1.9660 C.ar    1  UNL1        0.1090
     27 C          -0.1150    0.2430   -1.5420 C.ar    1  UNL1       -0.0081
     28 C          -0.8780    1.3140   -0.8410 C.3     1  UNL1       -0.0368
     29 H           3.5510    4.3430    3.2890 H       1  UNL1        0.0230
     30 H           4.1760    4.7590    1.6830 H       1  UNL1        0.0230
     31 H           4.7860    3.3240    2.5300 H       1  UNL1        0.0230
     32 H           2.5100    2.2860    2.3960 H       1  UNL1        0.0278
     33 H           1.9040    3.7060    1.5530 H       1  UNL1        0.0278
     34 H           3.5260    3.2840   -0.3280 H       1  UNL1        0.0462
     35 H           4.1150    1.8410    0.5130 H       1  UNL1        0.0462
     36 H           1.7010    1.0400    0.3940 H       1  UNL1        0.1490
     37 H           2.4240   -1.1100   -3.2130 H       1  UNL1        0.0838
     38 H          -1.0920   -4.1790   -3.8770 H       1  UNL1        0.1066
     39 H          -3.6310   -2.0280   -1.2140 H       1  UNL1        0.1536
     40 H          -0.6570   -1.4210    0.6540 H       1  UNL1        0.0655
     41 H          -0.4920   -0.9010    4.3040 H       1  UNL1        0.1548
     42 H           2.8890   -0.9970    3.4280 H       1  UNL1        0.0323
     43 H           2.0480    0.2990    4.3260 H       1  UNL1        0.0323
     44 H           1.6820   -1.4180    4.6520 H       1  UNL1        0.0323
     45 H          -2.8010   -0.7460    4.3090 H       1  UNL1        0.0636
     46 H          -4.9160   -0.7850    3.0900 H       1  UNL1        0.0621
     47 H          -5.3160   -0.3400   -0.4020 H       1  UNL1        0.0278
     48 H          -5.5950   -2.0430    0.0680 H       1  UNL1        0.0278
     49 H          -6.1440   -0.7180    1.1050 H       1  UNL1        0.0278
     50 H          -1.9520    1.2320   -1.0310 H       1  UNL1        0.0278
     51 H          -0.5680    2.3000   -1.2020 H       1  UNL1        0.0278
     52 H          -0.7070    1.2830    0.2380 H       1  UNL1        0.0278
@<TRIPOS>BOND
     1     1     2    1
     2     1    29    1
     3     1    30    1
     4     1    31    1
     5     2     3    1
     6     2    32    1
     7     2    33    1
     8     3     4    1
     9     3    34    1
    10     3    35    1
    11     4     5   am
    12     4    36    1
    13     5     6    2
    14     5     7    1
    15     7     8   ar
    16     7    27   ar
    17     8     9   ar
    18     8    37    1
    19     9    10   ar
    20     9    26   ar
    21    10    11   ar
    22    11    12   ar
    23    11    38    1
    24    12    13   ar
    25    13    14    1
    26    13    26   ar
    27    14    15    1
    28    14    39    1
    29    15    16   ar
    30    15    24   ar
    31    16    17   ar
    32    16    40    1
    33    17    18    1
    34    17    22   ar
    35    18    19   am
    36    18    41    1
    37    19    20    1
    38    19    21    2
    39    20    42    1
    40    20    43    1
    41    20    44    1
    42    22    23   ar
    43    22    45    1
    44    23    24   ar
    45    23    46    1
    46    24    25    1
    47    25    47    1
    48    25    48    1
    49    25    49    1
    50    26    27   ar
    51    27    28    1
    52    28    50    1
    53    28    51    1
    54    28    52    1
@<TRIPOS>MOLECULE
AD3CC00574893-I00-C01
 40 43 0 0 0
SMALL
GASTEIGER

@<TRIPOS>ATOM
      1 C          -0.0900   -0.1120   -3.2440 C.3     1  UNL1       -0.0391
      2 C          -1.0470    0.6920   -2.4060 C.ar    1  UNL1       -0.0426
      3 C          -2.3330    0.9500   -2.9080 C.ar    1  UNL1       -0.0583
      4 C          -3.2380    1.7330   -2.1910 C.ar    1  UNL1       -0.0615
      5 C          -2.8650    2.2840   -0.9690 C.ar    1  UNL1       -0.0612
      6 C          -1.5880    2.0480   -0.4610 C.ar    1  UNL1       -0.0536
      7 C          -0.6720    1.2460   -1.1640 C.ar    1  UNL1       -0.0092
      8 C           0.6700    1.0160   -0.5700 C.ar    1  UNL1        0.0550
      9 C           0.8950    0.0840    0.3960 C.ar    1  UNL1        0.0042
     10 C          -0.2420   -0.7320    0.8970 C.ar    1  UNL1       -0.0136
     11 C          -0.6220   -1.9050    0.2430 C.ar    1  UNL1       -0.0358
     12 C          -1.6750   -2.6350    0.7660 C.ar    1  UNL1        0.0281
     13 N          -2.3530   -2.2860    1.8800 N.ar    1  UNL1       -0.2632
     14 C          -1.9680   -1.1470    2.4940 C.ar    1  UNL1        0.0281
     15 C          -0.9290   -0.3470    2.0510 C.ar    1  UNL1       -0.0358
     16 C           2.2800   -0.0830    0.9230 C.ar    1  UNL1        0.0068
     17 C           2.5950   -1.0330    1.9070 C.ar    1  UNL1       -0.0520
     18 C           3.9040   -1.1660    2.3830 C.ar    1  UNL1       -0.0611
     19 C           4.9160   -0.3530    1.8820 C.ar    1  UNL1       -0.0598
     20 C           4.6230    0.5940    0.9030 C.ar    1  UNL1       -0.0377
     21 C           3.3140    0.7210    0.4310 C.ar    1  UNL1        0.0498
     22 N           3.0380    1.6670   -0.5520 N.ar    1  UNL1       -0.3216
     23 C           1.7990    1.8680   -1.0850 C.ar    1  UNL1        0.2575
     24 O           1.6390    2.7220   -1.9540 O.2     1  UNL1       -0.2672
     25 H           0.4560   -0.8420   -2.6390 H       1  UNL1        0.0278
     26 H          -0.6200   -0.6780   -4.0180 H       1  UNL1        0.0278
     27 H           0.6250    0.5530   -3.7390 H       1  UNL1        0.0278
     28 H          -2.6370    0.5460   -3.8710 H       1  UNL1        0.0620
     29 H          -4.2300    1.9220   -2.5930 H       1  UNL1        0.0618
     30 H          -3.5650    2.9030   -0.4150 H       1  UNL1        0.0618
     31 H          -1.3080    2.4970    0.4890 H       1  UNL1        0.0624
     32 H          -0.1140   -2.2460   -0.6510 H       1  UNL1        0.0639
     33 H          -2.0110   -3.5520    0.2890 H       1  UNL1        0.0830
     34 H          -2.5340   -0.8870    3.3840 H       1  UNL1        0.0830
     35 H          -0.6640    0.5540    2.5930 H       1  UNL1        0.0639
     36 H           1.8320   -1.6890    2.3200 H       1  UNL1        0.0624
     37 H           4.1290   -1.9080    3.1460 H       1  UNL1        0.0618
     38 H           5.9330   -0.4570    2.2530 H       1  UNL1        0.0618
     39 H           5.4190    1.2230    0.5150 H       1  UNL1        0.0638
     40 H           3.7710    2.2560   -0.9210 H       1  UNL1        0.1689
@<TRIPOS>BOND
     1     1     2    1
     2     1    25    1
     3     1    26    1
     4     1    27    1
     5     2     3   ar
     6     2     7   ar
     7     3     4   ar
     8     3    28    1
     9     4     5   ar
    10     4    29    1
    11     5     6   ar
    12     5    30    1
    13     6     7   ar
    14     6    31    1
    15     7     8    1
    16     8     9   ar
    17     8    23   ar
    18     9    10    1
    19     9    16   ar
    20    10    11   ar
    21    10    15   ar
    22    11    12   ar
    23    11    32    1
    24    12    13   ar
    25    12    33    1
    26    13    14   ar
    27    14    15   ar
    28    14    34    1
    29    15    35    1
    30    16    17   ar
    31    16    21   ar
    32    17    18   ar
    33    17    36    1
    34    18    19   ar
    35    18    37    1
    36    19    20   ar
    37    19    38    1
    38    20    21   ar
    39    20    39    1
    40    21    22   ar
    41    22    23   ar
    42    22    40    1
    43    23    24    2
@<TRIPOS>MOLECULE
AD3CC00575423-I00-C00
 46 47 0 0 0
SMALL
GASTEIGER

@<TRIPOS>ATOM
      1 C           6.0590    0.7680   -2.4840 C.3     1  UNL1       -0.0495
      2 C           6.0660    0.5170   -0.9870 C.3     1  UNL1        0.0091
      3 N           4.7770    0.0550   -0.5180 N.am    1  UNL1       -0.3116
      4 C           4.4170   -1.2750   -0.5790 C.2     1  UNL1        0.2441
      5 O           5.1650   -2.1590   -0.9830 O.2     1  UNL1       -0.2702
      6 C           3.0520   -1.6240   -0.0910 C.ar    1  UNL1        0.0385
      7 C           2.8330   -2.9190    0.3820 C.ar    1  UNL1       -0.0493
      8 C           1.5700   -3.2890    0.8410 C.ar    1  UNL1       -0.0564
      9 C           0.5050   -2.3720    0.8340 C.ar    1  UNL1       -0.0292
     10 C          -0.8320   -2.8350    1.3500 C.3     1  UNL1       -0.0380
     11 C           0.7190   -1.0620    0.3490 C.ar    1  UNL1        0.0373
     12 N          -0.3680   -0.1570    0.3430 N.am    1  UNL1       -0.2808
     13 C          -0.3740    1.1950    0.0260 C.2     1  UNL1        0.2567
     14 O           0.6310    1.8330   -0.2760 O.2     1  UNL1       -0.2692
     15 C          -1.6860    1.8280    0.0990 C.ar    1  UNL1        0.0982
     16 S          -3.1170    0.9560    0.4740 S.2     1  UNL1       -0.0476
     17 C          -4.0520    2.3920    0.3340 C.ar    1  UNL1        0.1590
     18 N          -5.3890    2.4690    0.5320 N.pl3   1  UNL1       -0.3237
     19 C          -6.2940    1.3790    0.2170 C.3     1  UNL1        0.0081
     20 C          -6.5200    1.2650   -1.2820 C.3     1  UNL1       -0.0496
     21 N          -3.3560    3.4620    0.0380 N.ar    1  UNL1       -0.2294
     22 C          -2.0100    3.1600   -0.1060 C.ar    1  UNL1        0.0596
     23 C          -1.0800    4.2690   -0.4520 C.3     1  UNL1       -0.0210
     24 C           1.9910   -0.7100   -0.1230 C.ar    1  UNL1       -0.0281
     25 H           7.0340    1.1400   -2.8130 H       1  UNL1        0.0245
     26 H           5.8380   -0.1510   -3.0380 H       1  UNL1        0.0245
     27 H           5.2990    1.5090   -2.7520 H       1  UNL1        0.0245
     28 H           6.2940    1.4430   -0.4500 H       1  UNL1        0.0459
     29 H           6.8310   -0.2240   -0.7320 H       1  UNL1        0.0459
     30 H           4.1490    0.7380   -0.1160 H       1  UNL1        0.1490
     31 H           3.6450   -3.6430    0.3930 H       1  UNL1        0.0625
     32 H           1.4250   -4.3040    1.2060 H       1  UNL1        0.0621
     33 H          -1.5820   -2.7900    0.5540 H       1  UNL1        0.0278
     34 H          -0.7930   -3.8700    1.7060 H       1  UNL1        0.0278
     35 H          -1.1510   -2.2130    2.1920 H       1  UNL1        0.0278
     36 H          -1.2630   -0.5220    0.6400 H       1  UNL1        0.1552
     37 H          -5.7600    3.3880    0.3050 H       1  UNL1        0.1479
     38 H          -5.9460    0.4250    0.6290 H       1  UNL1        0.0459
     39 H          -7.2550    1.5870    0.7010 H       1  UNL1        0.0459
     40 H          -6.9000    2.2060   -1.6940 H       1  UNL1        0.0245
     41 H          -7.2500    0.4790   -1.4970 H       1  UNL1        0.0245
     42 H          -5.5930    1.0190   -1.8100 H       1  UNL1        0.0245
     43 H          -1.6200    5.2170   -0.5420 H       1  UNL1        0.0293
     44 H          -0.3180    4.3900    0.3240 H       1  UNL1        0.0293
     45 H          -0.5850    4.0730   -1.4080 H       1  UNL1        0.0293
     46 H           2.1630    0.2660   -0.5600 H       1  UNL1        0.0644
@<TRIPOS>BOND
     1     1     2    1
     2     1    25    1
     3     1    26    1
     4     1    27    1
     5     2     3    1
     6     2    28    1
     7     2    29    1
     8     3     4   am
     9     3    30    1
    10     4     5    2
    11     4     6    1
    12     6     7   ar
    13     6    24   ar
    14     7     8   ar
    15     7    31    1
    16     8     9   ar
    17     8    32    1
    18     9    10    1
    19     9    11   ar
    20    10    33    1
    21    10    34    1
    22    10    35    1
    23    11    12    1
    24    11    24   ar
    25    12    13   am
    26    12    36    1
    27    13    14    2
    28    13    15    1
    29    15    16   ar
    30    15    22   ar
    31    16    17   ar
    32    17    18    1
    33    17    21   ar
    34    18    19    1
    35    18    37    1
    36    19    20    1
    37    19    38    1
    38    19    39    1
    39    20    40    1
    40    20    41    1
    41    20    42    1
    42    21    22   ar
    43    22    23    1
    44    23    43    1
    45    23    44    1
    46    23    45    1
    47    24    46    1
@<TRIPOS>MOLECULE
AD3CC00577771-I00-C00
 73 77 0 0 0
SMALL
GASTEIGER

@<TRIPOS>ATOM
      1 C          -3.5450    4.0240   -1.8980 C.3     1  UNL1       -0.0495
      2 C          -4.5710    3.6650   -0.8390 C.3     1  UNL1        0.0091
      3 N          -4.4500    2.2870   -0.4150 N.am    1  UNL1       -0.3116
      4 C          -3.5190    1.8890    0.5210 C.2     1  UNL1        0.2459
      5 O          -2.7100    2.6620    1.0240 O.2     1  UNL1       -0.2701
      6 C          -3.5780    0.4700    0.8850 C.ar    1  UNL1        0.0598
      7 C          -4.1650   -0.5470    0.1500 C.ar    1  UNL1        0.0423
      8 N          -4.0090   -1.7240    0.8230 N.ar    1  UNL1       -0.2342
      9 N          -4.5130   -2.9030    0.4310 N.ar    1  UNL1       -0.1548
     10 C          -4.2430   -3.8790    1.2370 C.ar    1  UNL1        0.1388
     11 N          -3.4900   -3.8200    2.3810 N.ar    1  UNL1       -0.2167
     12 C          -2.9620   -2.6820    2.7420 C.ar    1  UNL1        0.1506
     13 N          -2.1780   -2.7110    3.8730 N.pl3   1  UNL1       -0.2974
     14 C          -0.7960   -2.3700    3.9120 C.ar    1  UNL1        0.0371
     15 C          -0.0740   -2.0240    2.7570 C.ar    1  UNL1       -0.0190
     16 C           1.2760   -1.6500    2.8150 C.ar    1  UNL1        0.0354
     17 N           1.8870   -1.2750    1.6010 N.am    1  UNL1       -0.2814
     18 C           3.2000   -0.8880    1.4000 C.2     1  UNL1        0.2483
     19 O           4.1090   -0.9150    2.2220 O.2     1  UNL1       -0.2699
     20 C           3.5070   -0.4300    0.0160 C.ar    1  UNL1        0.0388
     21 C           4.7600   -0.7190   -0.5230 C.ar    1  UNL1       -0.0495
     22 C           5.0560   -0.3200   -1.8230 C.ar    1  UNL1       -0.0593
     23 C           4.1060    0.3780   -2.5780 C.ar    1  UNL1       -0.0406
     24 C           2.8500    0.7150   -2.0520 C.ar    1  UNL1        0.0305
     25 N           1.8640    1.4070   -2.7720 N.pl3   1  UNL1       -0.3274
     26 C           2.0260    1.5290   -4.2370 C.3     1  UNL1        0.0250
     27 C           0.7350    2.0880   -4.8800 C.3     1  UNL1        0.0144
     28 N           0.3350    3.3920   -4.3070 N.3     1  UNL1       -0.3024
     29 C          -0.9120    3.8590   -4.9080 C.3     1  UNL1       -0.0126
     30 C           0.1850    3.2480   -2.8420 C.3     1  UNL1        0.0144
     31 C           1.4560    2.6960   -2.1550 C.3     1  UNL1        0.0250
     32 C           2.5710    0.2930   -0.7400 C.ar    1  UNL1       -0.0285
     33 C           1.9200   -1.6410    4.0470 C.ar    1  UNL1       -0.0401
     34 C           1.2250   -1.9920    5.2070 C.ar    1  UNL1       -0.0553
     35 C          -0.1310   -2.3480    5.1560 C.ar    1  UNL1       -0.0292
     36 C          -0.8440   -2.6880    6.4370 C.3     1  UNL1       -0.0380
     37 C          -3.2740   -1.5200    1.9510 C.ar    1  UNL1        0.1090
     38 C          -3.0360   -0.1560    2.0700 C.ar    1  UNL1       -0.0081
     39 C          -2.3650    0.5650    3.1900 C.3     1  UNL1       -0.0368
     40 H          -2.5280    3.9270   -1.5080 H       1  UNL1        0.0245
     41 H          -3.6340    3.3660   -2.7690 H       1  UNL1        0.0245
     42 H          -3.6840    5.0570   -2.2300 H       1  UNL1        0.0245
     43 H          -4.4580    4.3190    0.0320 H       1  UNL1        0.0459
     44 H          -5.5820    3.7940   -1.2360 H       1  UNL1        0.0459
     45 H          -5.1430    1.6240   -0.7270 H       1  UNL1        0.1490
     46 H          -4.6820   -0.5480   -0.7980 H       1  UNL1        0.0838
     47 H          -4.6440   -4.8760    0.9850 H       1  UNL1        0.1066
     48 H          -2.2890   -3.6080    4.3400 H       1  UNL1        0.1536
     49 H          -0.5670   -2.0430    1.7900 H       1  UNL1        0.0655
     50 H           1.2940   -1.3170    0.7810 H       1  UNL1        0.1551
     51 H           5.5000   -1.2600    0.0630 H       1  UNL1        0.0625
     52 H           6.0280   -0.5490   -2.2530 H       1  UNL1        0.0618
     53 H           4.3880    0.6740   -3.5840 H       1  UNL1        0.0636
     54 H           2.8650    2.1960   -4.4750 H       1  UNL1        0.0476
     55 H           2.2260    0.5460   -4.6810 H       1  UNL1        0.0476
     56 H          -0.0720    1.3530   -4.7520 H       1  UNL1        0.0442
     57 H           0.9090    2.2010   -5.9560 H       1  UNL1        0.0442
     58 H          -1.1930    4.8350   -4.4990 H       1  UNL1        0.0391
     59 H          -0.7900    3.9940   -5.9890 H       1  UNL1        0.0391
     60 H          -1.7420    3.1630   -4.7400 H       1  UNL1        0.0391
     61 H          -0.0430    4.2260   -2.4020 H       1  UNL1        0.0442
     62 H          -0.6550    2.5790   -2.6130 H       1  UNL1        0.0442
     63 H           2.2740    3.4230   -2.2480 H       1  UNL1        0.0476
     64 H           1.2320    2.5850   -1.0880 H       1  UNL1        0.0476
     65 H           1.6040    0.5370   -0.3100 H       1  UNL1        0.0643
     66 H           2.9630   -1.3560    4.1440 H       1  UNL1        0.0636
     67 H           1.7550   -1.9700    6.1570 H       1  UNL1        0.0621
     68 H          -1.7150   -2.0380    6.5720 H       1  UNL1        0.0278
     69 H          -0.1950   -2.5500    7.3090 H       1  UNL1        0.0278
     70 H          -1.1680   -3.7330    6.4260 H       1  UNL1        0.0278
     71 H          -2.4320    0.0080    4.1280 H       1  UNL1        0.0278
     72 H          -1.3120    0.7430    2.9550 H       1  UNL1        0.0278
     73 H          -2.8450    1.5320    3.3730 H       1  UNL1        0.0278
@<TRIPOS>BOND
     1     1     2    1
     2     1    40    1
     3     1    41    1
     4     1    42    1
     5     2     3    1
     6     2    43    1
     7     2    44    1
     8     3     4   am
     9     3    45    1
    10     4     5    2
    11     4     6    1
    12     6     7   ar
    13     6    38   ar
    14     7     8   ar
    15     7    46    1
    16     8     9   ar
    17     8    37   ar
    18     9    10   ar
    19    10    11   ar
    20    10    47    1
    21    11    12   ar
    22    12    13    1
    23    12    37   ar
    24    13    14    1
    25    13    48    1
    26    14    15   ar
    27    14    35   ar
    28    15    16   ar
    29    15    49    1
    30    16    17    1
    31    16    33   ar
    32    17    18   am
    33    17    50    1
    34    18    19    2
    35    18    20    1
    36    20    21   ar
    37    20    32   ar
    38    21    22   ar
    39    21    51    1
    40    22    23   ar
    41    22    52    1
    42    23    24   ar
    43    23    53    1
    44    24    25    1
    45    24    32   ar
    46    25    26    1
    47    25    31    1
    48    26    27    1
    49    26    54    1
    50    26    55    1
    51    27    28    1
    52    27    56    1
    53    27    57    1
    54    28    29    1
    55    28    30    1
    56    29    58    1
    57    29    59    1
    58    29    60    1
    59    30    31    1
    60    30    61    1
    61    30    62    1
    62    31    63    1
    63    31    64    1
    64    32    65    1
    65    33    34   ar
    66    33    66    1
    67    34    35   ar
    68    34    67    1
    69    35    36    1
    70    36    68    1
    71    36    69    1
    72    36    70    1
    73    37    38   ar
    74    38    39    1
    75    39    71    1
    76    39    72    1
    77    39    73    1
@<TRIPOS>MOLECULE
AD3CC00578938-I00-C00
 33 35 0 0 0
SMALL
GASTEIGER

@<TRIPOS>ATOM
      1 C           3.7360   -0.0690    0.5500 C.3     1  UNL1        0.0177
      2 C           2.5760   -0.5770   -0.2720 C.2     1  UNL1        0.2575
      3 O           2.7830   -1.2640   -1.2710 O.2     1  UNL1       -0.2700
      4 N           1.3370   -0.2060    0.1860 N.ar    1  UNL1       -0.1364
      5 O           1.2360    0.5510    1.3660 O.2     1  UNL1       -0.3266
      6 C          -0.0920    0.7080    1.6390 C.ar    1  UNL1        0.3671
      7 O          -0.5480    1.2980    2.6020 O.2     1  UNL1       -0.2425
      8 C          -0.8600    0.0370    0.5650 C.ar    1  UNL1        0.0957
      9 C          -2.3240   -0.0200    0.4990 C.ar    1  UNL1       -0.0087
     10 C          -3.0690   -0.3380    1.6470 C.ar    1  UNL1       -0.0510
     11 C          -4.4640   -0.3970    1.5990 C.ar    1  UNL1       -0.0259
     12 C          -5.1200   -0.1340    0.4040 C.ar    1  UNL1        0.1234
     13 F          -6.4570   -0.1920    0.3580 F       1  UNL1       -0.2055
     14 C          -4.4080    0.1930   -0.7420 C.ar    1  UNL1       -0.0259
     15 C          -3.0130    0.2550   -0.6940 C.ar    1  UNL1       -0.0510
     16 C           0.0730   -0.4900   -0.2450 C.ar    1  UNL1        0.1065
     17 C          -0.2010   -1.2970   -1.4410 C.ar    1  UNL1        0.0056
     18 C          -0.8340   -2.5380   -1.3310 C.ar    1  UNL1       -0.0343
     19 C          -1.1140   -3.2420   -2.4910 C.ar    1  UNL1        0.0282
     20 N          -0.8100   -2.7990   -3.7290 N.ar    1  UNL1       -0.2632
     21 C          -0.1820   -1.6080   -3.8110 C.ar    1  UNL1        0.0282
     22 C           0.1320   -0.8250   -2.7130 C.ar    1  UNL1       -0.0343
     23 H           4.6760   -0.3940    0.0940 H       1  UNL1        0.0326
     24 H           3.6840   -0.4760    1.5630 H       1  UNL1        0.0326
     25 H           3.7270    1.0240    0.5790 H       1  UNL1        0.0326
     26 H          -2.5730   -0.5400    2.5960 H       1  UNL1        0.0625
     27 H          -5.0400   -0.6420    2.4860 H       1  UNL1        0.0646
     28 H          -4.9410    0.4010   -1.6650 H       1  UNL1        0.0646
     29 H          -2.4780    0.5270   -1.6010 H       1  UNL1        0.0625
     30 H          -1.1110   -2.9560   -0.3690 H       1  UNL1        0.0639
     31 H          -1.6070   -4.2090   -2.4540 H       1  UNL1        0.0830
     32 H           0.0700   -1.2860   -4.8180 H       1  UNL1        0.0830
     33 H           0.6390    0.1240   -2.8540 H       1  UNL1        0.0639
@<TRIPOS>BOND
     1     1     2    1
     2     1    23    1
     3     1    24    1
     4     1    25    1
     5     2     3    2
     6     2     4   am
     7     4     5   ar
     8     4    16   ar
     9     5     6   ar
    10     6     7    2
    11     6     8   ar
    12     8     9    1
    13     8    16   ar
    14     9    10   ar
    15     9    15   ar
    16    10    11   ar
    17    10    26    1
    18    11    12   ar
    19    11    27    1
    20    12    13    1
    21    12    14   ar
    22    14    15   ar
    23    14    28    1
    24    15    29    1
    25    16    17    1
    26    17    18   ar
    27    17    22   ar
    28    18    19   ar
    29    18    30    1
    30    19    20   ar
    31    19    31    1
    32    20    21   ar
    33    21    22   ar
    34    21    32    1
    35    22    33    1
@<TRIPOS>MOLECULE
AD3CC00580648-I00-C02
 47 50 0 0 0
SMALL
GASTEIGER

@<TRIPOS>ATOM
      1 C           1.3350    0.9830   -2.7440 C.3     1  UNL1        0.0820
      2 O           0.9450    0.3650   -1.5200 O.3     1  UNL1       -0.4634
      3 C           1.1320    1.1460   -0.4250 C.2     1  UNL1        0.3563
      4 O           1.5290    2.3020   -0.4120 O.2     1  UNL1       -0.2433
      5 C           0.7270    0.3870    0.8030 C.ar    1  UNL1        0.1383
      6 C           1.5380   -0.6080    1.2430 C.ar    1  UNL1        0.0206
      7 C           2.8010   -0.9040    0.5170 C.ar    1  UNL1       -0.0151
      8 C           2.8550   -1.9630   -0.3990 C.ar    1  UNL1       -0.0539
      9 C           4.0430   -2.2440   -1.0760 C.ar    1  UNL1       -0.0612
     10 C           5.1800   -1.4730   -0.8410 C.ar    1  UNL1       -0.0617
     11 C           5.1330   -0.4190    0.0710 C.ar    1  UNL1       -0.0612
     12 C           3.9480   -0.1340    0.7510 C.ar    1  UNL1       -0.0539
     13 C           1.1230   -1.3480    2.4620 C.ar    1  UNL1       -0.0018
     14 C           1.9060   -2.3900    2.9930 C.ar    1  UNL1       -0.0392
     15 C           1.4960   -3.0780    4.1380 C.ar    1  UNL1        0.0185
     16 BR          2.5680   -4.4770    4.8230 Br      1  UNL1       -0.0503
     17 C           0.3080   -2.7450    4.7780 C.ar    1  UNL1       -0.0470
     18 C          -0.4750   -1.7110    4.2680 C.ar    1  UNL1       -0.0478
     19 C          -0.0660   -1.0160    3.1180 C.ar    1  UNL1        0.0474
     20 C          -0.9060    0.0880    2.6020 C.ar    1  UNL1        0.2600
     21 O          -1.9490    0.3610    3.1900 O.2     1  UNL1       -0.2670
     22 N          -0.4520    0.7550    1.4650 N.ar    1  UNL1       -0.2973
     23 C          -1.2760    1.8700    0.9730 C.3     1  UNL1        0.0519
     24 C          -2.0750    1.5330   -0.2670 C.ar    1  UNL1       -0.0276
     25 C          -2.9630    0.4480   -0.2800 C.ar    1  UNL1       -0.0569
     26 C          -3.7060    0.1530   -1.4240 C.ar    1  UNL1       -0.0614
     27 C          -3.5790    0.9440   -2.5640 C.ar    1  UNL1       -0.0617
     28 C          -2.7130    2.0350   -2.5590 C.ar    1  UNL1       -0.0614
     29 C          -1.9690    2.3320   -1.4160 C.ar    1  UNL1       -0.0569
     30 H           2.4100    1.1860   -2.7420 H       1  UNL1        0.0661
     31 H           0.7690    1.9040   -2.9140 H       1  UNL1        0.0661
     32 H           1.1150    0.2880   -3.5600 H       1  UNL1        0.0661
     33 H           1.9730   -2.5670   -0.5960 H       1  UNL1        0.0624
     34 H           4.0800   -3.0640   -1.7890 H       1  UNL1        0.0618
     35 H           6.1040   -1.6920   -1.3690 H       1  UNL1        0.0618
     36 H           6.0200    0.1830    0.2520 H       1  UNL1        0.0618
     37 H           3.9260    0.6920    1.4580 H       1  UNL1        0.0624
     38 H           2.8430   -2.6750    2.5200 H       1  UNL1        0.0635
     39 H          -0.0160   -3.2760    5.6700 H       1  UNL1        0.0629
     40 H          -1.4030   -1.4430    4.7700 H       1  UNL1        0.0626
     41 H          -1.9850    2.1930    1.7440 H       1  UNL1        0.0542
     42 H          -0.6270    2.7380    0.8090 H       1  UNL1        0.0542
     43 H          -3.0870   -0.1710    0.6060 H       1  UNL1        0.0621
     44 H          -4.3900   -0.6930   -1.4230 H       1  UNL1        0.0618
     45 H          -4.1600    0.7150   -3.4530 H       1  UNL1        0.0618
     46 H          -2.6190    2.6580   -3.4440 H       1  UNL1        0.0618
     47 H          -1.2990    3.1900   -1.4290 H       1  UNL1        0.0621
@<TRIPOS>BOND
     1     1     2    1
     2     1    30    1
     3     1    31    1
     4     1    32    1
     5     2     3    1
     6     3     4    2
     7     3     5    1
     8     5     6   ar
     9     5    22   ar
    10     6     7    1
    11     6    13   ar
    12     7     8   ar
    13     7    12   ar
    14     8     9   ar
    15     8    33    1
    16     9    10   ar
    17     9    34    1
    18    10    11   ar
    19    10    35    1
    20    11    12   ar
    21    11    36    1
    22    12    37    1
    23    13    14   ar
    24    13    19   ar
    25    14    15   ar
    26    14    38    1
    27    15    16    1
    28    15    17   ar
    29    17    18   ar
    30    17    39    1
    31    18    19   ar
    32    18    40    1
    33    19    20   ar
    34    20    21    2
    35    20    22   ar
    36    22    23    1
    37    23    24    1
    38    23    41    1
    39    23    42    1
    40    24    25   ar
    41    24    29   ar
    42    25    26   ar
    43    25    43    1
    44    26    27   ar
    45    26    44    1
    46    27    28   ar
    47    27    45    1
    48    28    29   ar
    49    28    46    1
    50    29    47    1
@<TRIPOS>MOLECULE
AD3CC00580702-I00-C00
 50 53 0 0 0
SMALL
GASTEIGER

@<TRIPOS>ATOM
      1 O          -0.8270   -0.1770   -2.9060 O.2     1  UNL1       -0.2435
      2 C          -1.2210   -0.4560   -1.7890 C.2     1  UNL1        0.3542
      3 O          -2.5150   -0.7270   -1.5310 O.3     1  UNL1       -0.4761
      4 C          -0.4050   -0.5020   -0.5430 C.ar    1  UNL1        0.1378
      5 C           0.1480   -1.6890   -0.1940 C.ar    1  UNL1        0.0206
      6 C          -0.0680   -2.8790   -1.0540 C.ar    1  UNL1       -0.0151
      7 C          -1.1130   -3.7690   -0.7730 C.ar    1  UNL1       -0.0539
      8 C          -1.3120   -4.8930   -1.5750 C.ar    1  UNL1       -0.0612
      9 C          -0.4700   -5.1340   -2.6600 C.ar    1  UNL1       -0.0617
     10 C           0.5710   -4.2510   -2.9460 C.ar    1  UNL1       -0.0612
     11 C           0.7740   -3.1260   -2.1460 C.ar    1  UNL1       -0.0539
     12 C           0.9450   -1.7350    1.0580 C.ar    1  UNL1       -0.0018
     13 C           1.5760   -2.9170    1.4850 C.ar    1  UNL1       -0.0392
     14 C           2.3150   -2.9420    2.6700 C.ar    1  UNL1        0.0185
     15 BR          3.1510   -4.5470    3.2190 Br      1  UNL1       -0.0503
     16 C           2.4430   -1.7980    3.4510 C.ar    1  UNL1       -0.0470
     17 C           1.8250   -0.6190    3.0400 C.ar    1  UNL1       -0.0478
     18 C           1.0820   -0.5890    1.8490 C.ar    1  UNL1        0.0473
     19 C           0.4430    0.6780    1.4240 C.ar    1  UNL1        0.2597
     20 O           0.5620    1.6690    2.1400 O.2     1  UNL1       -0.2670
     21 N          -0.2580    0.6650    0.2170 N.ar    1  UNL1       -0.3015
     22 C          -0.8510    1.9340   -0.2360 C.3     1  UNL1        0.0297
     23 C           0.0210    2.6840   -1.2730 C.3     1  UNL1       -0.0229
     24 C          -0.8020    3.7650   -1.9970 C.3     1  UNL1       -0.0486
     25 C          -1.1020    4.9740   -1.1150 C.3     1  UNL1       -0.0528
     26 C           0.1750    5.5740   -0.5350 C.3     1  UNL1       -0.0530
     27 C           1.0100    4.5310    0.2010 C.3     1  UNL1       -0.0528
     28 C           1.2920    3.3110   -0.6750 C.3     1  UNL1       -0.0486
     29 H          -2.9410   -0.6910   -2.4120 H       1  UNL1        0.2955
     30 H          -1.7780   -3.5910    0.0700 H       1  UNL1        0.0624
     31 H          -2.1240   -5.5820   -1.3540 H       1  UNL1        0.0618
     32 H          -0.6260   -6.0090   -3.2860 H       1  UNL1        0.0618
     33 H           1.2250   -4.4380   -3.7950 H       1  UNL1        0.0618
     34 H           1.5880   -2.4440   -2.3830 H       1  UNL1        0.0624
     35 H           1.4980   -3.8290    0.8980 H       1  UNL1        0.0635
     36 H           3.0170   -1.8120    4.3740 H       1  UNL1        0.0629
     37 H           1.9260    0.2800    3.6460 H       1  UNL1        0.0626
     38 H          -1.8440    1.7230   -0.6490 H       1  UNL1        0.0496
     39 H          -1.0410    2.5730    0.6340 H       1  UNL1        0.0496
     40 H           0.3470    1.9630   -2.0320 H       1  UNL1        0.0318
     41 H          -1.7400    3.3410   -2.3740 H       1  UNL1        0.0268
     42 H          -0.2420    4.1030   -2.8790 H       1  UNL1        0.0268
     43 H          -1.6270    5.7350   -1.7030 H       1  UNL1        0.0265
     44 H          -1.7760    4.6850   -0.3000 H       1  UNL1        0.0265
     45 H           0.7720    6.0090   -1.3460 H       1  UNL1        0.0265
     46 H          -0.0770    6.3930    0.1470 H       1  UNL1        0.0265
     47 H           1.9590    4.9800    0.5160 H       1  UNL1        0.0265
     48 H           0.4900    4.2270    1.1160 H       1  UNL1        0.0265
     49 H           1.9440    3.6240   -1.5010 H       1  UNL1        0.0268
     50 H           1.8640    2.5690   -0.1080 H       1  UNL1        0.0268
@<TRIPOS>BOND
     1     1     2    2
     2     2     3    1
     3     2     4    1
     4     3    29    1
     5     4     5   ar
     6     4    21   ar
     7     5     6    1
     8     5    12   ar
     9     6     7   ar
    10     6    11   ar
    11     7     8   ar
    12     7    30    1
    13     8     9   ar
    14     8    31    1
    15     9    10   ar
    16     9    32    1
    17    10    11   ar
    18    10    33    1
    19    11    34    1
    20    12    13   ar
    21    12    18   ar
    22    13    14   ar
    23    13    35    1
    24    14    15    1
    25    14    16   ar
    26    16    17   ar
    27    16    36    1
    28    17    18   ar
    29    17    37    1
    30    18    19   ar
    31    19    20    2
    32    19    21   ar
    33    21    22    1
    34    22    23    1
    35    22    38    1
    36    22    39    1
    37    23    24    1
    38    23    28    1
    39    23    40    1
    40    24    25    1
    41    24    41    1
    42    24    42    1
    43    25    26    1
    44    25    43    1
    45    25    44    1
    46    26    27    1
    47    26    45    1
    48    26    46    1
    49    27    28    1
    50    27    47    1
    51    27    48    1
    52    28    49    1
    53    28    50    1
@<TRIPOS>MOLECULE
AD3CC00580727-I00-C00
 51 54 0 0 0
SMALL
GASTEIGER

@<TRIPOS>ATOM
      1 O           2.0910   -2.8320   -1.2660 O.2     1  UNL1       -0.2670
      2 C           1.0390   -2.3530   -0.8450 C.ar    1  UNL1        0.2593
      3 C          -0.2140   -3.0960   -1.0760 C.ar    1  UNL1        0.0473
      4 C          -0.1800   -4.2980   -1.8030 C.ar    1  UNL1       -0.0478
      5 C          -1.3550   -5.0070   -2.0430 C.ar    1  UNL1       -0.0470
      6 C          -2.5580   -4.5090   -1.5560 C.ar    1  UNL1        0.0185
      7 BR         -4.1620   -5.4590   -1.8750 Br      1  UNL1       -0.0503
      8 C          -2.5930   -3.3140   -0.8320 C.ar    1  UNL1       -0.0392
      9 C          -1.4130   -2.5890   -0.5810 C.ar    1  UNL1       -0.0022
     10 C          -1.4260   -1.3260    0.2010 C.ar    1  UNL1        0.0117
     11 C          -2.6780   -0.7940    0.7960 C.ar    1  UNL1       -0.0156
     12 C          -3.4770    0.0990    0.0700 C.ar    1  UNL1       -0.0540
     13 C          -4.6580    0.5920    0.6260 C.ar    1  UNL1       -0.0612
     14 C          -5.0470    0.1930    1.9050 C.ar    1  UNL1       -0.0617
     15 C          -4.2590   -0.7010    2.6290 C.ar    1  UNL1       -0.0612
     16 C          -3.0770   -1.1960    2.0770 C.ar    1  UNL1       -0.0540
     17 C          -0.2580   -0.6500    0.3900 C.ar    1  UNL1        0.0556
     18 C          -0.2030    0.6300    1.2230 C.3     1  UNL1        0.0850
     19 O           0.5370    0.4090    2.4210 O.3     1  UNL1       -0.3889
     20 N           0.9520   -1.1280   -0.1620 N.ar    1  UNL1       -0.3088
     21 C           2.2310   -0.3980   -0.0480 C.3     1  UNL1        0.0293
     22 C           2.7030    0.2200   -1.3920 C.3     1  UNL1       -0.0229
     23 C           1.9780    1.5300   -1.7440 C.3     1  UNL1       -0.0486
     24 C           2.4360    2.7270   -0.9100 C.3     1  UNL1       -0.0528
     25 C           3.9510    2.8970   -0.9400 C.3     1  UNL1       -0.0530
     26 C           4.6670    1.6140   -0.5330 C.3     1  UNL1       -0.0528
     27 C           4.2270    0.4380   -1.3990 C.3     1  UNL1       -0.0486
     28 H           0.7650   -4.6810   -2.1840 H       1  UNL1        0.0626
     29 H          -1.3190   -5.9350   -2.6070 H       1  UNL1        0.0629
     30 H          -3.5530   -2.9560   -0.4650 H       1  UNL1        0.0635
     31 H          -3.1860    0.4130   -0.9300 H       1  UNL1        0.0624
     32 H          -5.2770    1.2860    0.0620 H       1  UNL1        0.0618
     33 H          -5.9680    0.5780    2.3370 H       1  UNL1        0.0618
     34 H          -4.5670   -1.0130    3.6240 H       1  UNL1        0.0618
     35 H          -2.4750   -1.8990    2.6490 H       1  UNL1        0.0624
     36 H           0.2600    1.4440    0.6620 H       1  UNL1        0.0622
     37 H          -1.1790    1.0150    1.5260 H       1  UNL1        0.0622
     38 H           0.2580   -0.4550    2.7680 H       1  UNL1        0.2099
     39 H           2.2130    0.3560    0.7380 H       1  UNL1        0.0495
     40 H           2.9750   -1.1340    0.2860 H       1  UNL1        0.0495
     41 H           2.4830   -0.4910   -2.1980 H       1  UNL1        0.0318
     42 H           0.8930    1.4060   -1.6570 H       1  UNL1        0.0268
     43 H           2.1710    1.7570   -2.8010 H       1  UNL1        0.0268
     44 H           1.9580    3.6380   -1.2870 H       1  UNL1        0.0265
     45 H           2.1120    2.6120    0.1300 H       1  UNL1        0.0265
     46 H           4.2440    3.7130   -0.2700 H       1  UNL1        0.0265
     47 H           4.2660    3.1860   -1.9510 H       1  UNL1        0.0265
     48 H           5.7500    1.7540   -0.6270 H       1  UNL1        0.0265
     49 H           4.4670    1.3970    0.5230 H       1  UNL1        0.0265
     50 H           4.5500    0.6240   -2.4320 H       1  UNL1        0.0268
     51 H           4.7440   -0.4730   -1.0760 H       1  UNL1        0.0268
@<TRIPOS>BOND
     1     1     2    2
     2     2     3   ar
     3     2    20   ar
     4     3     4   ar
     5     3     9   ar
     6     4     5   ar
     7     4    28    1
     8     5     6   ar
     9     5    29    1
    10     6     7    1
    11     6     8   ar
    12     8     9   ar
    13     8    30    1
    14     9    10   ar
    15    10    11    1
    16    10    17   ar
    17    11    12   ar
    18    11    16   ar
    19    12    13   ar
    20    12    31    1
    21    13    14   ar
    22    13    32    1
    23    14    15   ar
    24    14    33    1
    25    15    16   ar
    26    15    34    1
    27    16    35    1
    28    17    18    1
    29    17    20   ar
    30    18    19    1
    31    18    36    1
    32    18    37    1
    33    19    38    1
    34    20    21    1
    35    21    22    1
    36    21    39    1
    37    21    40    1
    38    22    23    1
    39    22    27    1
    40    22    41    1
    41    23    24    1
    42    23    42    1
    43    23    43    1
    44    24    25    1
    45    24    44    1
    46    24    45    1
    47    25    26    1
    48    25    46    1
    49    25    47    1
    50    26    27    1
    51    26    48    1
    52    26    49    1
    53    27    50    1
    54    27    51    1
@<TRIPOS>MOLECULE
AD3CC00585146-I00-C00
 56 60 0 0 0
SMALL
GASTEIGER

@<TRIPOS>ATOM
      1 C          -0.5370   -3.3620    3.0840 C.3     1  UNL1       -0.0412
      2 C          -0.1440   -1.9090    3.3130 C.3     1  UNL1        0.0927
      3 C           0.8190   -1.7890    4.4900 C.3     1  UNL1       -0.0412
      4 S          -1.5760   -0.8580    3.5820 S.O2    1  UNL1        0.0599
      5 O          -2.3450   -1.3670    4.7080 O.2     1  UNL1       -0.1525
      6 O          -1.1390    0.5270    3.5720 O.2     1  UNL1       -0.1525
      7 N          -2.5780   -0.9960    2.2290 N.ar    1  UNL1       -0.1832
      8 C          -3.6600   -1.8380    2.1220 C.ar    1  UNL1        0.2142
      9 N          -4.1640   -2.5770    3.1270 N.pl3   1  UNL1       -0.3275
     10 N          -4.1260   -1.8300    0.8950 N.ar    1  UNL1       -0.2133
     11 C          -3.2730   -1.0320    0.1750 C.ar    1  UNL1        0.0927
     12 C          -3.2810   -0.7360   -1.1960 C.ar    1  UNL1       -0.0335
     13 C          -2.2550    0.0590   -1.7260 C.ar    1  UNL1       -0.0504
     14 C          -1.2370    0.5650   -0.9080 C.ar    1  UNL1        0.0026
     15 C          -0.1430    1.3420   -1.4790 C.ar    1  UNL1        0.0743
     16 N          -0.3420    2.4530   -2.2660 N.ar    1  UNL1       -0.3374
     17 C           0.8750    3.0180   -2.5730 C.ar    1  UNL1        0.1393
     18 C           1.0580    4.2260   -3.3850 C.ar    1  UNL1        0.0174
     19 C          -0.0140    5.0290   -3.8060 C.ar    1  UNL1       -0.0497
     20 C           0.2120    6.1730   -4.5810 C.ar    1  UNL1       -0.0427
     21 C           1.5100    6.5260   -4.9410 C.ar    1  UNL1        0.0410
     22 CL          1.7820    7.9320   -5.8940 Cl      1  UNL1       -0.0835
     23 C           2.5870    5.7460   -4.5320 C.ar    1  UNL1       -0.0427
     24 C           2.3590    4.6050   -3.7570 C.ar    1  UNL1       -0.0497
     25 N           1.8420    2.3020   -2.0280 N.ar    1  UNL1       -0.2271
     26 C           1.2350    1.2610   -1.3640 C.ar    1  UNL1        0.0971
     27 C           1.9910    0.2620   -0.6300 C.ar    1  UNL1        0.0025
     28 C           3.0450    0.6670    0.1980 C.ar    1  UNL1       -0.0525
     29 C           3.7730   -0.2730    0.9310 C.ar    1  UNL1       -0.0611
     30 C           3.4610   -1.6280    0.8320 C.ar    1  UNL1       -0.0617
     31 C           2.4270   -2.0460   -0.0040 C.ar    1  UNL1       -0.0611
     32 C           1.6960   -1.1050   -0.7340 C.ar    1  UNL1       -0.0525
     33 C          -1.2450    0.3060    0.4730 C.ar    1  UNL1       -0.0251
     34 C          -2.2690   -0.5050    0.9830 C.ar    1  UNL1        0.0942
     35 H          -1.1030   -3.7640    3.9310 H       1  UNL1        0.0249
     36 H          -1.1560   -3.4700    2.1880 H       1  UNL1        0.0249
     37 H           0.3510   -3.9870    2.9430 H       1  UNL1        0.0249
     38 H           0.3520   -1.5230    2.4170 H       1  UNL1        0.0551
     39 H           0.3570   -2.1330    5.4210 H       1  UNL1        0.0249
     40 H           1.1290   -0.7490    4.6380 H       1  UNL1        0.0249
     41 H           1.7210   -2.3850    4.3170 H       1  UNL1        0.0249
     42 H          -5.1090   -2.9290    2.9980 H       1  UNL1        0.1451
     43 H          -3.9650   -2.3090    4.0970 H       1  UNL1        0.1451
     44 H          -4.0570   -1.1470   -1.8340 H       1  UNL1        0.0640
     45 H          -2.2460    0.2470   -2.7980 H       1  UNL1        0.0625
     46 H          -1.2420    2.8160   -2.5380 H       1  UNL1        0.1674
     47 H          -1.0390    4.7930   -3.5370 H       1  UNL1        0.0625
     48 H          -0.6290    6.7850   -4.8970 H       1  UNL1        0.0632
     49 H           3.6030    6.0160   -4.8060 H       1  UNL1        0.0632
     50 H           3.2090    4.0010   -3.4410 H       1  UNL1        0.0625
     51 H           3.2990    1.7230    0.2740 H       1  UNL1        0.0624
     52 H           4.5880    0.0550    1.5710 H       1  UNL1        0.0618
     53 H           4.0360   -2.3600    1.3940 H       1  UNL1        0.0618
     54 H           2.1960   -3.1030   -0.0990 H       1  UNL1        0.0618
     55 H           0.9050   -1.4480   -1.3960 H       1  UNL1        0.0624
     56 H          -0.4710    0.7180    1.1160 H       1  UNL1        0.0646
@<TRIPOS>BOND
     1     1     2    1
     2     1    35    1
     3     1    36    1
     4     1    37    1
     5     2     3    1
     6     2     4    1
     7     2    38    1
     8     3    39    1
     9     3    40    1
    10     3    41    1
    11     4     5    2
    12     4     6    2
    13     4     7    1
    14     7     8   ar
    15     7    34   ar
    16     8     9    1
    17     8    10   ar
    18     9    42    1
    19     9    43    1
    20    10    11   ar
    21    11    12   ar
    22    11    34   ar
    23    12    13   ar
    24    12    44    1
    25    13    14   ar
    26    13    45    1
    27    14    15    1
    28    14    33   ar
    29    15    16   ar
    30    15    26   ar
    31    16    17   ar
    32    16    46    1
    33    17    18    1
    34    17    25   ar
    35    18    19   ar
    36    18    24   ar
    37    19    20   ar
    38    19    47    1
    39    20    21   ar
    40    20    48    1
    41    21    22    1
    42    21    23   ar
    43    23    24   ar
    44    23    49    1
    45    24    50    1
    46    25    26   ar
    47    26    27    1
    48    27    28   ar
    49    27    32   ar
    50    28    29   ar
    51    28    51    1
    52    29    30   ar
    53    29    52    1
    54    30    31   ar
    55    30    53    1
    56    31    32   ar
    57    31    54    1
    58    32    55    1
    59    33    34   ar
    60    33    56    1
@<TRIPOS>MOLECULE
AD3CC00585210-I00-C00
 46 49 0 0 0
SMALL
GASTEIGER

@<TRIPOS>ATOM
      1 C           1.3320   -2.7510   -2.4200 C.3     1  UNL1       -0.0391
      2 C           2.0770   -2.9100   -1.1220 C.ar    1  UNL1       -0.0427
      3 C           3.1870   -3.7690   -1.0780 C.ar    1  UNL1       -0.0576
      4 C           3.9130   -3.9480    0.1040 C.ar    1  UNL1       -0.0508
      5 C           3.5440   -3.2780    1.2740 C.ar    1  UNL1        0.0178
      6 C           4.2770   -3.4280    2.5370 C.ar    1  UNL1        0.1381
      7 N           4.1560   -2.6530    3.6010 N.ar    1  UNL1       -0.2361
      8 C           5.0110   -3.1540    4.5470 C.ar    1  UNL1        0.0458
      9 C           5.6670   -4.2590    4.0680 C.ar    1  UNL1        0.0216
     10 N           5.1920   -4.4250    2.7970 N.ar    1  UNL1       -0.3444
     11 C           2.4310   -2.4250    1.2280 C.ar    1  UNL1       -0.0431
     12 C           1.6810   -2.2320    0.0510 C.ar    1  UNL1       -0.0143
     13 C           0.5200   -1.3300    0.0880 C.ar    1  UNL1       -0.0176
     14 C           0.6970    0.0600    0.1720 C.ar    1  UNL1       -0.0533
     15 C          -0.4020    0.9250    0.2120 C.ar    1  UNL1       -0.0491
     16 C          -1.7020    0.4080    0.1630 C.ar    1  UNL1        0.0367
     17 C          -2.9060    1.2860    0.2000 C.2     1  UNL1        0.2441
     18 O          -3.9800    0.8460    0.5950 O.2     1  UNL1       -0.2702
     19 N          -2.7390    2.5730   -0.2670 N.am    1  UNL1       -0.3111
     20 C          -3.8800    3.4460   -0.4070 C.3     1  UNL1        0.0147
     21 C          -3.4020    4.8380   -0.6650 C.3     1  UNL1       -0.0254
     22 C          -2.9390    5.2530   -2.0400 C.3     1  UNL1       -0.0485
     23 C          -4.2320    5.7880   -1.4890 C.3     1  UNL1       -0.0485
     24 C          -1.8900   -0.9770    0.1020 C.ar    1  UNL1       -0.0491
     25 C          -0.7880   -1.8370    0.0630 C.ar    1  UNL1       -0.0533
     26 H           1.1700   -1.6930   -2.6500 H       1  UNL1        0.0278
     27 H           0.3690   -3.2680   -2.3710 H       1  UNL1        0.0278
     28 H           1.8970   -3.1740   -3.2580 H       1  UNL1        0.0278
     29 H           3.5000   -4.3020   -1.9730 H       1  UNL1        0.0621
     30 H           4.7750   -4.6070    0.0760 H       1  UNL1        0.0625
     31 H           5.1040   -2.6920    5.5220 H       1  UNL1        0.0845
     32 H           6.4000   -4.9210    4.5050 H       1  UNL1        0.0823
     33 H           5.4500   -5.1640    2.1600 H       1  UNL1        0.1668
     34 H           2.1340   -1.9010    2.1380 H       1  UNL1        0.0631
     35 H           1.7030    0.4760    0.2150 H       1  UNL1        0.0624
     36 H          -0.2230    1.9910    0.3120 H       1  UNL1        0.0625
     37 H          -1.9320    2.7740   -0.8410 H       1  UNL1        0.1490
     38 H          -4.4950    3.0630   -1.2300 H       1  UNL1        0.0465
     39 H          -4.4780    3.4110    0.5090 H       1  UNL1        0.0465
     40 H          -2.8830    5.2500    0.1930 H       1  UNL1        0.0316
     41 H          -2.0970    5.9330   -2.1070 H       1  UNL1        0.0269
     42 H          -2.9960    4.5350   -2.8500 H       1  UNL1        0.0269
     43 H          -4.2630    6.8290   -1.1840 H       1  UNL1        0.0269
     44 H          -5.1570    5.4300   -1.9260 H       1  UNL1        0.0269
     45 H          -2.8960   -1.3930    0.0870 H       1  UNL1        0.0625
     46 H          -0.9550   -2.9120    0.0220 H       1  UNL1        0.0624
@<TRIPOS>BOND
     1     1     2    1
     2     1    26    1
     3     1    27    1
     4     1    28    1
     5     2     3   ar
     6     2    12   ar
     7     3     4   ar
     8     3    29    1
     9     4     5   ar
    10     4    30    1
    11     5     6    1
    12     5    11   ar
    13     6     7   ar
    14     6    10   ar
    15     7     8   ar
    16     8     9   ar
    17     8    31    1
    18     9    10   ar
    19     9    32    1
    20    10    33    1
    21    11    12   ar
    22    11    34    1
    23    12    13    1
    24    13    14   ar
    25    13    25   ar
    26    14    15   ar
    27    14    35    1
    28    15    16   ar
    29    15    36    1
    30    16    17    1
    31    16    24   ar
    32    17    18    2
    33    17    19   am
    34    19    20    1
    35    19    37    1
    36    20    21    1
    37    20    38    1
    38    20    39    1
    39    21    22    1
    40    21    23    1
    41    21    40    1
    42    22    23    1
    43    22    41    1
    44    22    42    1
    45    23    43    1
    46    23    44    1
    47    24    25   ar
    48    24    45    1
    49    25    46    1
@<TRIPOS>MOLECULE
AD3CC00585237-I00-C00
 53 56 0 0 0
SMALL
GASTEIGER

@<TRIPOS>ATOM
      1 C           4.0090   -5.7640   -1.7320 C.3     1  UNL1       -0.0648
      2 C           2.6630   -5.2200   -2.1920 C.3     1  UNL1       -0.0475
      3 C           2.7720   -4.2920   -3.4020 C.3     1  UNL1        0.0253
      4 C           3.4530   -3.0170   -3.0820 C.ar    1  UNL1        0.2177
      5 N           4.6790   -2.6300   -3.3580 N.ar    1  UNL1       -0.1121
      6 N           4.8090   -1.3590   -2.8350 N.ar    1  UNL1       -0.1073
      7 C           3.6520   -1.0600   -2.2770 C.ar    1  UNL1        0.2483
      8 C           3.2310    0.1480   -1.5800 C.ar    1  UNL1        0.0391
      9 C           4.1250    1.2160   -1.4440 C.ar    1  UNL1       -0.0492
     10 C           3.7460    2.3860   -0.7810 C.ar    1  UNL1       -0.0575
     11 C           2.4610    2.5170   -0.2350 C.ar    1  UNL1       -0.0427
     12 C           2.0920    3.7950    0.4710 C.3     1  UNL1       -0.0391
     13 C           1.5450    1.4500   -0.3570 C.ar    1  UNL1       -0.0143
     14 C           0.1870    1.5170    0.1970 C.ar    1  UNL1       -0.0176
     15 C          -0.8890    1.9400   -0.5970 C.ar    1  UNL1       -0.0533
     16 C          -2.1840    1.9940   -0.0730 C.ar    1  UNL1       -0.0491
     17 C          -2.4220    1.6320    1.2580 C.ar    1  UNL1        0.0367
     18 C          -3.8180    1.7030    1.7730 C.2     1  UNL1        0.2441
     19 O          -4.7660    1.6240    1.0000 O.2     1  UNL1       -0.2702
     20 N          -3.9580    1.8970    3.1320 N.am    1  UNL1       -0.3111
     21 C          -5.2650    2.1280    3.6980 C.3     1  UNL1        0.0147
     22 C          -5.1760    2.0360    5.1870 C.3     1  UNL1       -0.0254
     23 C          -6.1030    2.8440    6.0570 C.3     1  UNL1       -0.0485
     24 C          -4.6390    3.1870    6.0010 C.3     1  UNL1       -0.0485
     25 C          -1.3580    1.1920    2.0540 C.ar    1  UNL1       -0.0491
     26 C          -0.0640    1.1390    1.5250 C.ar    1  UNL1       -0.0533
     27 C           1.9470    0.2800   -1.0310 C.ar    1  UNL1       -0.0415
     28 O           2.7350   -2.0750   -2.3980 O.2     1  UNL1       -0.4202
     29 H           4.6650   -4.9630   -1.3770 H       1  UNL1        0.0230
     30 H           4.5180   -6.2910   -2.5460 H       1  UNL1        0.0230
     31 H           3.8680   -6.4700   -0.9080 H       1  UNL1        0.0230
     32 H           2.0210   -6.0690   -2.4600 H       1  UNL1        0.0267
     33 H           2.1770   -4.7040   -1.3560 H       1  UNL1        0.0267
     34 H           1.7640   -4.0700   -3.7730 H       1  UNL1        0.0360
     35 H           3.3030   -4.7990   -4.2170 H       1  UNL1        0.0360
     36 H           5.1300    1.1460   -1.8590 H       1  UNL1        0.0625
     37 H           4.4670    3.1970   -0.6960 H       1  UNL1        0.0621
     38 H           1.2190    4.2570   -0.0020 H       1  UNL1        0.0278
     39 H           1.8780    3.6000    1.5270 H       1  UNL1        0.0278
     40 H           2.9080    4.5250    0.4300 H       1  UNL1        0.0278
     41 H          -0.7230    2.2290   -1.6330 H       1  UNL1        0.0624
     42 H          -3.0070    2.3200   -0.7060 H       1  UNL1        0.0625
     43 H          -3.1640    2.2460    3.6490 H       1  UNL1        0.1490
     44 H          -5.6040    3.1170    3.3670 H       1  UNL1        0.0465
     45 H          -5.9660    1.3820    3.3100 H       1  UNL1        0.0465
     46 H          -4.9430    1.0280    5.5130 H       1  UNL1        0.0316
     47 H          -6.8020    3.5250    5.5850 H       1  UNL1        0.0269
     48 H          -6.4820    2.3800    6.9610 H       1  UNL1        0.0269
     49 H          -4.3560    4.1010    5.4920 H       1  UNL1        0.0269
     50 H          -4.0320    2.9550    6.8690 H       1  UNL1        0.0269
     51 H          -1.5200    0.8600    3.0750 H       1  UNL1        0.0625
     52 H           0.7540    0.7890    2.1530 H       1  UNL1        0.0624
     53 H           1.2350   -0.5390   -1.1230 H       1  UNL1        0.0631
@<TRIPOS>BOND
     1     1     2    1
     2     1    29    1
     3     1    30    1
     4     1    31    1
     5     2     3    1
     6     2    32    1
     7     2    33    1
     8     3     4    1
     9     3    34    1
    10     3    35    1
    11     4     5   ar
    12     4    28   ar
    13     5     6   ar
    14     6     7   ar
    15     7     8    1
    16     7    28   ar
    17     8     9   ar
    18     8    27   ar
    19     9    10   ar
    20     9    36    1
    21    10    11   ar
    22    10    37    1
    23    11    12    1
    24    11    13   ar
    25    12    38    1
    26    12    39    1
    27    12    40    1
    28    13    14    1
    29    13    27   ar
    30    14    15   ar
    31    14    26   ar
    32    15    16   ar
    33    15    41    1
    34    16    17   ar
    35    16    42    1
    36    17    18    1
    37    17    25   ar
    38    18    19    2
    39    18    20   am
    40    20    21    1
    41    20    43    1
    42    21    22    1
    43    21    44    1
    44    21    45    1
    45    22    23    1
    46    22    24    1
    47    22    46    1
    48    23    24    1
    49    23    47    1
    50    23    48    1
    51    24    49    1
    52    24    50    1
    53    25    26   ar
    54    25    51    1
    55    26    52    1
    56    27    53    1
@<TRIPOS>MOLECULE
AD3CC00585270-I00-C00
 50 53 0 0 0
SMALL
GASTEIGER

@<TRIPOS>ATOM
      1 C          -2.0350    1.7700   -8.0840 C.3     1  UNL1        0.0138
      2 C          -0.7440    1.9830   -7.4100 C.ar    1  UNL1        0.2147
      3 N           0.3930    2.4320   -7.8930 N.ar    1  UNL1       -0.1124
      4 N           1.2840    2.4360   -6.8390 N.ar    1  UNL1       -0.1073
      5 C           0.6280    1.9890   -5.7870 C.ar    1  UNL1        0.2483
      6 C           1.0790    1.7870   -4.4160 C.ar    1  UNL1        0.0391
      7 C           2.4030    2.0820   -4.0720 C.ar    1  UNL1       -0.0492
      8 C           2.8610    1.8970   -2.7650 C.ar    1  UNL1       -0.0575
      9 C           2.0050    1.4090   -1.7670 C.ar    1  UNL1       -0.0427
     10 C           2.5380    1.2240   -0.3710 C.3     1  UNL1       -0.0391
     11 C           0.6640    1.1100   -2.0910 C.ar    1  UNL1       -0.0143
     12 C          -0.2880    0.6040   -1.0940 C.ar    1  UNL1       -0.0176
     13 C          -1.0130    1.4920   -0.2830 C.ar    1  UNL1       -0.0533
     14 C          -1.9270    1.0140    0.6590 C.ar    1  UNL1       -0.0491
     15 C          -2.1130   -0.3640    0.8060 C.ar    1  UNL1        0.0369
     16 C          -3.0980   -0.8930    1.7750 C.2     1  UNL1        0.2466
     17 O          -3.9540   -1.6660    1.3490 O.2     1  UNL1       -0.2700
     18 N          -3.0230   -0.4790    3.1070 N.am    1  UNL1       -0.2975
     19 C          -1.7730   -0.0760    3.7550 C.3     1  UNL1        0.0150
     20 C          -1.1720   -1.2590    4.5160 C.3     1  UNL1       -0.0371
     21 C          -2.1840   -1.8630    5.4930 C.3     1  UNL1       -0.0502
     22 C          -3.5050   -2.1950    4.7940 C.3     1  UNL1       -0.0371
     23 C          -4.0360   -0.9820    4.0310 C.3     1  UNL1        0.0150
     24 C          -1.4210   -1.2600   -0.0130 C.ar    1  UNL1       -0.0491
     25 C          -0.5080   -0.7760   -0.9530 C.ar    1  UNL1       -0.0533
     26 C           0.2230    1.3030   -3.4160 C.ar    1  UNL1       -0.0415
     27 O          -0.6780    1.6800   -6.0780 O.2     1  UNL1       -0.4205
     28 H          -1.9710    2.0450   -9.1400 H       1  UNL1        0.0324
     29 H          -2.8160    2.3790   -7.6180 H       1  UNL1        0.0324
     30 H          -2.3320    0.7190   -8.0210 H       1  UNL1        0.0324
     31 H           3.0930    2.4610   -4.8250 H       1  UNL1        0.0625
     32 H           3.8970    2.1360   -2.5340 H       1  UNL1        0.0621
     33 H           2.0280    1.8980    0.3240 H       1  UNL1        0.0278
     34 H           2.4050    0.1880   -0.0430 H       1  UNL1        0.0278
     35 H           3.6100    1.4450   -0.3190 H       1  UNL1        0.0278
     36 H          -0.8720    2.5660   -0.3910 H       1  UNL1        0.0624
     37 H          -2.4960    1.7120    1.2670 H       1  UNL1        0.0625
     38 H          -1.0380    0.2920    3.0370 H       1  UNL1        0.0464
     39 H          -2.0050    0.7450    4.4440 H       1  UNL1        0.0464
     40 H          -0.8590   -2.0310    3.8020 H       1  UNL1        0.0280
     41 H          -0.2770   -0.9370    5.0600 H       1  UNL1        0.0280
     42 H          -2.3730   -1.1510    6.3050 H       1  UNL1        0.0266
     43 H          -1.7670   -2.7680    5.9490 H       1  UNL1        0.0266
     44 H          -4.2440   -2.5270    5.5310 H       1  UNL1        0.0280
     45 H          -3.3430   -3.0270    4.0970 H       1  UNL1        0.0280
     46 H          -4.2820   -0.1720    4.7270 H       1  UNL1        0.0464
     47 H          -4.9550   -1.2440    3.4970 H       1  UNL1        0.0464
     48 H          -1.5960   -2.3300    0.0780 H       1  UNL1        0.0625
     49 H           0.0300   -1.4820   -1.5830 H       1  UNL1        0.0624
     50 H          -0.8130    1.0690   -3.6590 H       1  UNL1        0.0631
@<TRIPOS>BOND
     1     1     2    1
     2     1    28    1
     3     1    29    1
     4     1    30    1
     5     2     3   ar
     6     2    27   ar
     7     3     4   ar
     8     4     5   ar
     9     5     6    1
    10     5    27   ar
    11     6     7   ar
    12     6    26   ar
    13     7     8   ar
    14     7    31    1
    15     8     9   ar
    16     8    32    1
    17     9    10    1
    18     9    11   ar
    19    10    33    1
    20    10    34    1
    21    10    35    1
    22    11    12    1
    23    11    26   ar
    24    12    13   ar
    25    12    25   ar
    26    13    14   ar
    27    13    36    1
    28    14    15   ar
    29    14    37    1
    30    15    16    1
    31    15    24   ar
    32    16    17    2
    33    16    18   am
    34    18    19    1
    35    18    23    1
    36    19    20    1
    37    19    38    1
    38    19    39    1
    39    20    21    1
    40    20    40    1
    41    20    41    1
    42    21    22    1
    43    21    42    1
    44    21    43    1
    45    22    23    1
    46    22    44    1
    47    22    45    1
    48    23    46    1
    49    23    47    1
    50    24    25   ar
    51    24    48    1
    52    25    49    1
    53    26    50    1
@<TRIPOS>MOLECULE
AD3CC00585365-I00-C00
 58 61 0 0 0
SMALL
GASTEIGER

@<TRIPOS>ATOM
      1 C           2.5100   -4.7250    7.4000 C.3     1  UNL1        0.0138
      2 C           2.2730   -5.4740    6.1550 C.ar    1  UNL1        0.2147
      3 N           2.1760   -6.7700    5.9580 N.ar    1  UNL1       -0.1124
      4 N           1.9510   -6.9390    4.6070 N.ar    1  UNL1       -0.1073
      5 C           1.9260   -5.7330    4.0740 C.ar    1  UNL1        0.2483
      6 C           1.7240   -5.3230    2.6910 C.ar    1  UNL1        0.0391
      7 C           1.5150   -6.2920    1.7030 C.ar    1  UNL1       -0.0492
      8 C           1.3180   -5.9250    0.3700 C.ar    1  UNL1       -0.0575
      9 C           1.3270   -4.5750   -0.0110 C.ar    1  UNL1       -0.0427
     10 C           1.1100   -4.2230   -1.4600 C.3     1  UNL1       -0.0391
     11 C           1.5280   -3.5800    0.9690 C.ar    1  UNL1       -0.0143
     12 C           1.5370   -2.1470    0.6430 C.ar    1  UNL1       -0.0176
     13 C           0.3360   -1.4360    0.5000 C.ar    1  UNL1       -0.0533
     14 C           0.3410   -0.0700    0.1990 C.ar    1  UNL1       -0.0491
     15 C           1.5550    0.6050    0.0320 C.ar    1  UNL1        0.0367
     16 C           1.6160    2.0600   -0.2860 C.2     1  UNL1        0.2443
     17 O           2.6050    2.7190    0.0150 O.2     1  UNL1       -0.2702
     18 N           0.5330    2.5870   -0.9520 N.am    1  UNL1       -0.3072
     19 C           0.5560    3.9560   -1.4120 C.3     1  UNL1        0.0371
     20 C          -0.7960    4.3560   -1.9370 C.ar    1  UNL1       -0.0302
     21 C          -1.0840    4.2700   -3.3070 C.ar    1  UNL1       -0.0553
     22 C          -2.3560    4.5930   -3.7840 C.ar    1  UNL1       -0.0390
     23 C          -3.3470    5.0070   -2.8950 C.ar    1  UNL1        0.0477
     24 N          -4.6630    5.2710   -3.3750 N.pl3   1  UNL1       -0.2209
     25 S          -5.7640    3.9810   -3.3330 S.O2    1  UNL1        0.0403
     26 C          -6.7790    4.4480   -1.9490 C.3     1  UNL1        0.0736
     27 O          -5.0850    2.7430   -3.0220 O.2     1  UNL1       -0.1555
     28 O          -6.5640    4.1230   -4.5310 O.2     1  UNL1       -0.1555
     29 C          -3.0810    5.0780   -1.5290 C.ar    1  UNL1       -0.0390
     30 C          -1.8080    4.7570   -1.0520 C.ar    1  UNL1       -0.0553
     31 C           2.7590   -0.0910    0.1920 C.ar    1  UNL1       -0.0491
     32 C           2.7480   -1.4560    0.4910 C.ar    1  UNL1       -0.0533
     33 C           1.7270   -3.9730    2.3080 C.ar    1  UNL1       -0.0415
     34 O           2.1260   -4.7450    5.0070 O.2     1  UNL1       -0.4205
     35 H           1.6790   -4.0430    7.6010 H       1  UNL1        0.0324
     36 H           3.4300   -4.1390    7.3250 H       1  UNL1        0.0324
     37 H           2.6060   -5.4070    8.2490 H       1  UNL1        0.0324
     38 H           1.5040   -7.3490    1.9670 H       1  UNL1        0.0625
     39 H           1.1580   -6.7060   -0.3710 H       1  UNL1        0.0621
     40 H           0.1550   -3.7060   -1.5870 H       1  UNL1        0.0278
     41 H           1.9240   -3.5910   -1.8300 H       1  UNL1        0.0278
     42 H           1.0880   -5.1190   -2.0900 H       1  UNL1        0.0278
     43 H          -0.6160   -1.9480    0.6320 H       1  UNL1        0.0624
     44 H          -0.6100    0.4510    0.1260 H       1  UNL1        0.0625
     45 H          -0.1260    1.9610   -1.3960 H       1  UNL1        0.1493
     46 H           0.8620    4.6120   -0.5880 H       1  UNL1        0.0512
     47 H           1.3220    4.0430   -2.1920 H       1  UNL1        0.0512
     48 H          -0.3220    3.9380   -4.0090 H       1  UNL1        0.0621
     49 H          -2.5670    4.4980   -4.8460 H       1  UNL1        0.0637
     50 H          -4.7030    5.6980   -4.3020 H       1  UNL1        0.1733
     51 H          -6.1770    4.4310   -1.0400 H       1  UNL1        0.0482
     52 H          -7.5900    3.7200   -1.8680 H       1  UNL1        0.0482
     53 H          -7.1930    5.4420   -2.1300 H       1  UNL1        0.0482
     54 H          -3.8510    5.3850   -0.8290 H       1  UNL1        0.0637
     55 H          -1.6090    4.8080    0.0170 H       1  UNL1        0.0621
     56 H           3.7090    0.4270    0.0810 H       1  UNL1        0.0625
     57 H           3.6950   -1.9820    0.6060 H       1  UNL1        0.0624
     58 H           1.8830   -3.2000    3.0610 H       1  UNL1        0.0631
@<TRIPOS>BOND
     1     1     2    1
     2     1    35    1
     3     1    36    1
     4     1    37    1
     5     2     3   ar
     6     2    34   ar
     7     3     4   ar
     8     4     5   ar
     9     5     6    1
    10     5    34   ar
    11     6     7   ar
    12     6    33   ar
    13     7     8   ar
    14     7    38    1
    15     8     9   ar
    16     8    39    1
    17     9    10    1
    18     9    11   ar
    19    10    40    1
    20    10    41    1
    21    10    42    1
    22    11    12    1
    23    11    33   ar
    24    12    13   ar
    25    12    32   ar
    26    13    14   ar
    27    13    43    1
    28    14    15   ar
    29    14    44    1
    30    15    16    1
    31    15    31   ar
    32    16    17    2
    33    16    18   am
    34    18    19    1
    35    18    45    1
    36    19    20    1
    37    19    46    1
    38    19    47    1
    39    20    21   ar
    40    20    30   ar
    41    21    22   ar
    42    21    48    1
    43    22    23   ar
    44    22    49    1
    45    23    24    1
    46    23    29   ar
    47    25    24    1
    48    24    50    1
    49    25    26    1
    50    25    27    2
    51    25    28    2
    52    26    51    1
    53    26    52    1
    54    26    53    1
    55    29    30   ar
    56    29    54    1
    57    30    55    1
    58    31    32   ar
    59    31    56    1
    60    32    57    1
    61    33    58    1
@<TRIPOS>MOLECULE
AD3CC00585426-I00-C00
 64 68 0 0 0
SMALL
GASTEIGER

@<TRIPOS>ATOM
      1 C           3.8800   -6.9820   -5.6890 C.3     1  UNL1        0.0138
      2 C           2.5490   -7.5020   -5.3350 C.ar    1  UNL1        0.2147
      3 N           1.9810   -8.6450   -5.6490 N.ar    1  UNL1       -0.1124
      4 N           0.7320   -8.6280   -5.0630 N.ar    1  UNL1       -0.1073
      5 C           0.6260   -7.4750   -4.4320 C.ar    1  UNL1        0.2483
      6 C          -0.4770   -6.9340   -3.6480 C.ar    1  UNL1        0.0391
      7 C          -1.6510   -7.6790   -3.4970 C.ar    1  UNL1       -0.0492
      8 C          -2.7230   -7.1830   -2.7520 C.ar    1  UNL1       -0.0575
      9 C          -2.6490   -5.9230   -2.1380 C.ar    1  UNL1       -0.0427
     10 C          -3.8270   -5.4260   -1.3440 C.3     1  UNL1       -0.0391
     11 C          -1.4710   -5.1570   -2.2720 C.ar    1  UNL1       -0.0143
     12 C          -1.3190   -3.8370   -1.6470 C.ar    1  UNL1       -0.0176
     13 C          -1.5640   -2.6660   -2.3810 C.ar    1  UNL1       -0.0533
     14 C          -1.4080   -1.4090   -1.7910 C.ar    1  UNL1       -0.0491
     15 C          -1.0120   -1.3060   -0.4530 C.ar    1  UNL1        0.0371
     16 C          -0.8540    0.0530    0.1390 C.2     1  UNL1        0.2483
     17 O          -0.4140    0.9430   -0.5780 O.2     1  UNL1       -0.2699
     18 N          -1.2580    0.1580    1.4580 N.am    1  UNL1       -0.2814
     19 C          -1.2030    1.3000    2.2870 C.ar    1  UNL1        0.0354
     20 C          -1.6910    1.1620    3.5880 C.ar    1  UNL1       -0.0404
     21 C          -1.6710    2.2440    4.4640 C.ar    1  UNL1       -0.0583
     22 C          -1.1540    3.4740    4.0480 C.ar    1  UNL1       -0.0405
     23 C          -0.6400    3.6500    2.7560 C.ar    1  UNL1        0.0315
     24 N          -0.1230    4.8720    2.2920 N.pl3   1  UNL1       -0.3274
     25 C           1.2710    4.7870    1.7880 C.3     1  UNL1        0.0250
     26 C           1.6650    6.0860    1.0440 C.3     1  UNL1        0.0144
     27 N           1.4750    7.3030    1.8650 N.3     1  UNL1       -0.3024
     28 C           1.8090    8.4990    1.0940 C.3     1  UNL1       -0.0126
     29 C           0.0680    7.3530    2.3190 C.3     1  UNL1        0.0144
     30 C          -0.3470    6.0860    3.1040 C.3     1  UNL1        0.0250
     31 C          -0.6930    2.5400    1.8870 C.ar    1  UNL1       -0.0194
     32 C          -0.7460   -2.4650    0.2840 C.ar    1  UNL1       -0.0491
     33 C          -0.9020   -3.7210   -0.3120 C.ar    1  UNL1       -0.0533
     34 C          -0.4020   -5.6760   -3.0310 C.ar    1  UNL1       -0.0415
     35 O           1.7520   -6.7020   -4.5620 O.2     1  UNL1       -0.4205
     36 H           3.7890   -6.0680   -6.2830 H       1  UNL1        0.0324
     37 H           4.4560   -6.7540   -4.7880 H       1  UNL1        0.0324
     38 H           4.4390   -7.7170   -6.2750 H       1  UNL1        0.0324
     39 H          -1.7410   -8.6600   -3.9630 H       1  UNL1        0.0625
     40 H          -3.6220   -7.7900   -2.6560 H       1  UNL1        0.0621
     41 H          -4.1590   -4.4510   -1.7160 H       1  UNL1        0.0278
     42 H          -4.6800   -6.1090   -1.4230 H       1  UNL1        0.0278
     43 H          -3.5650   -5.3450   -0.2840 H       1  UNL1        0.0278
     44 H          -1.8770   -2.7290   -3.4210 H       1  UNL1        0.0624
     45 H          -1.5960   -0.5110   -2.3760 H       1  UNL1        0.0625
     46 H          -1.6880   -0.6580    1.8720 H       1  UNL1        0.1551
     47 H          -2.0960    0.2170    3.9380 H       1  UNL1        0.0636
     48 H          -2.0550    2.1350    5.4750 H       1  UNL1        0.0619
     49 H          -1.1500    4.2850    4.7680 H       1  UNL1        0.0636
     50 H           1.9560    4.6240    2.6310 H       1  UNL1        0.0476
     51 H           1.4060    3.9560    1.0870 H       1  UNL1        0.0476
     52 H           1.0740    6.1550    0.1200 H       1  UNL1        0.0442
     53 H           2.7200    6.0060    0.7530 H       1  UNL1        0.0442
     54 H           1.6910    9.3970    1.7110 H       1  UNL1        0.0391
     55 H           1.1820    8.6100    0.2010 H       1  UNL1        0.0391
     56 H           2.8570    8.4690    0.7770 H       1  UNL1        0.0391
     57 H          -0.0740    8.2210    2.9740 H       1  UNL1        0.0442
     58 H          -0.6060    7.4750    1.4600 H       1  UNL1        0.0442
     59 H          -1.4100    6.1830    3.3580 H       1  UNL1        0.0476
     60 H           0.2300    6.0340    4.0370 H       1  UNL1        0.0476
     61 H          -0.3500    2.6790    0.8670 H       1  UNL1        0.0655
     62 H          -0.3850   -2.4100    1.3070 H       1  UNL1        0.0625
     63 H          -0.6850   -4.6170    0.2670 H       1  UNL1        0.0624
     64 H           0.5040   -5.0790   -3.1320 H       1  UNL1        0.0631
@<TRIPOS>BOND
     1     1     2    1
     2     1    36    1
     3     1    37    1
     4     1    38    1
     5     2     3   ar
     6     2    35   ar
     7     3     4   ar
     8     4     5   ar
     9     5     6    1
    10     5    35   ar
    11     6     7   ar
    12     6    34   ar
    13     7     8   ar
    14     7    39    1
    15     8     9   ar
    16     8    40    1
    17     9    10    1
    18     9    11   ar
    19    10    41    1
    20    10    42    1
    21    10    43    1
    22    11    12    1
    23    11    34   ar
    24    12    13   ar
    25    12    33   ar
    26    13    14   ar
    27    13    44    1
    28    14    15   ar
    29    14    45    1
    30    15    16    1
    31    15    32   ar
    32    16    17    2
    33    16    18   am
    34    18    19    1
    35    18    46    1
    36    19    20   ar
    37    19    31   ar
    38    20    21   ar
    39    20    47    1
    40    21    22   ar
    41    21    48    1
    42    22    23   ar
    43    22    49    1
    44    23    24    1
    45    23    31   ar
    46    24    25    1
    47    24    30    1
    48    25    26    1
    49    25    50    1
    50    25    51    1
    51    26    27    1
    52    26    52    1
    53    26    53    1
    54    27    28    1
    55    27    29    1
    56    28    54    1
    57    28    55    1
    58    28    56    1
    59    29    30    1
    60    29    57    1
    61    29    58    1
    62    30    59    1
    63    30    60    1
    64    31    61    1
    65    32    33   ar
    66    32    62    1
    67    33    63    1
    68    34    64    1
@<TRIPOS>MOLECULE
AD3CC00588110-I00-C00
 37 39 0 0 0
SMALL
GASTEIGER

@<TRIPOS>ATOM
      1 C           2.5940   -2.3060   -5.1900 C.3     1  UNL1        0.0788
      2 O           2.4810   -2.1340   -3.7820 O.3     1  UNL1       -0.4949
      3 C           1.5890   -1.1940   -3.3440 C.ar    1  UNL1        0.1271
      4 C           0.7720   -0.4000   -4.1510 C.ar    1  UNL1        0.0225
      5 C          -0.0970    0.5230   -3.5680 C.ar    1  UNL1        0.1347
      6 O          -0.8690    1.2670   -4.4210 O.3     1  UNL1       -0.5058
      7 C          -0.1560    0.6570   -2.1790 C.ar    1  UNL1        0.1055
      8 C          -1.0580    1.6160   -1.5320 C.ar    1  UNL1        0.1966
      9 O          -1.7980    2.3370   -2.1920 O.2     1  UNL1       -0.2869
     10 C          -1.0330    1.6720   -0.0630 C.ar    1  UNL1        0.0288
     11 C          -0.1980    0.8620    0.6040 C.ar    1  UNL1        0.1393
     12 C          -0.1320    0.8600    2.0790 C.ar    1  UNL1        0.0211
     13 C          -0.1060    2.0600    2.8090 C.ar    1  UNL1       -0.0474
     14 C          -0.0350    2.0430    4.2020 C.ar    1  UNL1       -0.0159
     15 C           0.0180    0.8250    4.8640 C.ar    1  UNL1        0.1585
     16 O           0.0880    0.8350    6.2300 O.3     1  UNL1       -0.5033
     17 C           0.0050   -0.3880    4.1680 C.ar    1  UNL1        0.1619
     18 O           0.0660   -1.5080    4.9570 O.3     1  UNL1       -0.4914
     19 C           0.0780   -2.7630    4.2860 C.3     1  UNL1        0.0790
     20 C          -0.0680   -0.3640    2.7740 C.ar    1  UNL1       -0.0057
     21 O           0.6480   -0.0550   -0.0020 O.2     1  UNL1       -0.4544
     22 C           0.6560   -0.1320   -1.3720 C.ar    1  UNL1        0.1462
     23 C           1.5260   -1.0560   -1.9530 C.ar    1  UNL1        0.0233
     24 H           1.6490   -2.6500   -5.6220 H       1  UNL1        0.0660
     25 H           2.9400   -1.3860   -5.6730 H       1  UNL1        0.0660
     26 H           3.3460   -3.0800   -5.3720 H       1  UNL1        0.0660
     27 H           0.7860   -0.4730   -5.2340 H       1  UNL1        0.0691
     28 H          -1.4290    1.8700   -3.8820 H       1  UNL1        0.2922
     29 H          -1.7110    2.3710    0.4110 H       1  UNL1        0.0693
     30 H          -0.1280    3.0230    2.3020 H       1  UNL1        0.0626
     31 H          -0.0150    2.9700    4.7660 H       1  UNL1        0.0655
     32 H           0.1190   -0.1070    6.4880 H       1  UNL1        0.2923
     33 H          -0.8480   -2.9170    3.7230 H       1  UNL1        0.0660
     34 H           0.1400   -3.5470    5.0460 H       1  UNL1        0.0660
     35 H           0.9570   -2.8560    3.6390 H       1  UNL1        0.0660
     36 H          -0.0840   -1.2860    2.2010 H       1  UNL1        0.0662
     37 H           2.1620   -1.6720   -1.3220 H       1  UNL1        0.0691
@<TRIPOS>BOND
     1     1     2    1
     2     1    24    1
     3     1    25    1
     4     1    26    1
     5     2     3    1
     6     3     4   ar
     7     3    23   ar
     8     4     5   ar
     9     4    27    1
    10     5     6    1
    11     5     7   ar
    12     6    28    1
    13     7     8   ar
    14     7    22   ar
    15     8     9    2
    16     8    10   ar
    17    10    11   ar
    18    10    29    1
    19    11    12    1
    20    11    21   ar
    21    12    13   ar
    22    12    20   ar
    23    13    14   ar
    24    13    30    1
    25    14    15   ar
    26    14    31    1
    27    15    16    1
    28    15    17   ar
    29    16    32    1
    30    17    18    1
    31    17    20   ar
    32    18    19    1
    33    19    33    1
    34    19    34    1
    35    19    35    1
    36    20    36    1
    37    21    22   ar
    38    22    23   ar
    39    23    37    1
@<TRIPOS>MOLECULE
AD3CC00600721-I00-C00
 39 42 0 0 0
SMALL
GASTEIGER

@<TRIPOS>ATOM
      1 N           3.8440    2.8340   -3.4790 N.pl3   1  UNL1       -0.3565
      2 C           3.4290    1.5180   -3.7960 C.ar    1  UNL1        0.0460
      3 C           3.9130    0.8970   -4.9510 C.ar    1  UNL1       -0.0392
      4 C           3.5710   -0.4250   -5.2370 C.ar    1  UNL1       -0.0599
      5 C           2.7790   -1.1460   -4.3470 C.ar    1  UNL1       -0.0599
      6 C           2.3470   -0.5560   -3.1570 C.ar    1  UNL1       -0.0387
      7 C           2.6920    0.7650   -2.8510 C.ar    1  UNL1        0.0523
      8 N           2.3270    1.4000   -1.6350 N.pl3   1  UNL1       -0.3130
      9 C           1.3840    1.0300   -0.6610 C.ar    1  UNL1        0.0320
     10 C           1.6900    1.1930    0.6950 C.ar    1  UNL1       -0.0398
     11 C           0.7700    0.8360    1.6840 C.ar    1  UNL1       -0.0486
     12 C          -0.4730    0.3070    1.3270 C.ar    1  UNL1        0.0296
     13 C          -1.5230    0.0130    2.4020 C.ar    1  UNL1        0.1957
     14 O          -1.2340   -0.7440    3.3110 O.2     1  UNL1       -0.2866
     15 C          -2.8910    0.6830    2.4140 C.ar    1  UNL1        0.0476
     16 C          -3.3100    1.4550    3.5000 C.ar    1  UNL1       -0.0474
     17 C          -4.5310    2.1150    3.4350 C.ar    1  UNL1       -0.0429
     18 C          -5.2820    1.9860    2.2800 C.ar    1  UNL1        0.0283
     19 N          -4.9000    1.2490    1.2130 N.ar    1  UNL1       -0.2549
     20 C          -3.7070    0.6080    1.2920 C.ar    1  UNL1        0.0747
     21 C          -3.3600   -0.2950    0.0640 C.ar    1  UNL1       -0.0350
     22 C          -2.1540   -0.4920   -0.4860 C.ar    1  UNL1       -0.0518
     23 C          -0.8020    0.1450   -0.0210 C.ar    1  UNL1       -0.0124
     24 C           0.1280    0.5110   -1.0040 C.ar    1  UNL1       -0.0327
     25 H           4.0680    3.3770   -4.3070 H       1  UNL1        0.1424
     26 H           3.1270    3.2950   -2.9200 H       1  UNL1        0.1424
     27 H           4.5500    1.4410   -5.6430 H       1  UNL1        0.0636
     28 H           3.9330   -0.8950   -6.1480 H       1  UNL1        0.0618
     29 H           2.5190   -2.1790   -4.5650 H       1  UNL1        0.0618
     30 H           1.7830   -1.1610   -2.4540 H       1  UNL1        0.0637
     31 H           3.1400    1.8940   -1.2710 H       1  UNL1        0.1522
     32 H           2.6550    1.5930    0.9960 H       1  UNL1        0.0636
     33 H           1.0240    0.9710    2.7330 H       1  UNL1        0.0625
     34 H          -2.6880    1.5360    4.3870 H       1  UNL1        0.0626
     35 H          -4.8870    2.7190    4.2630 H       1  UNL1        0.0633
     36 H          -6.2420    2.4830    2.1770 H       1  UNL1        0.0830
     37 H          -4.2060   -0.8160   -0.3790 H       1  UNL1        0.0639
     38 H          -2.1060   -1.1710   -1.3360 H       1  UNL1        0.0624
     39 H          -0.1360    0.4070   -2.0540 H       1  UNL1        0.0642
@<TRIPOS>BOND
     1     1     2    1
     2     1    25    1
     3     1    26    1
     4     2     3   ar
     5     2     7   ar
     6     3     4   ar
     7     3    27    1
     8     4     5   ar
     9     4    28    1
    10     5     6   ar
    11     5    29    1
    12     6     7   ar
    13     6    30    1
    14     7     8    1
    15     8     9    1
    16     8    31    1
    17     9    10   ar
    18     9    24   ar
    19    10    11   ar
    20    10    32    1
    21    11    12   ar
    22    11    33    1
    23    12    13   ar
    24    12    23   ar
    25    13    14    2
    26    13    15   ar
    27    15    16   ar
    28    15    20   ar
    29    16    17   ar
    30    16    34    1
    31    17    18   ar
    32    17    35    1
    33    18    19   ar
    34    18    36    1
    35    19    20   ar
    36    20    21   ar
    37    21    22   ar
    38    21    37    1
    39    22    23   ar
    40    22    38    1
    41    23    24   ar
    42    24    39    1
@<TRIPOS>MOLECULE
AD3CC00608220-I00-C01
 59 62 0 0 0
SMALL
GASTEIGER

@<TRIPOS>ATOM
      1 C           4.0150   -4.4120    0.2090 C.3     1  UNL1       -0.0107
      2 S           3.3570   -3.8010    1.7780 S.3     1  UNL1       -0.0913
      3 C           2.7140   -2.2850    1.2730 C.ar    1  UNL1        0.1671
      4 N           2.7110   -1.7740    0.0700 N.ar    1  UNL1       -0.2214
      5 C           2.0730   -0.5560    0.2000 C.ar    1  UNL1        0.0976
      6 C           1.8690    0.3210   -0.9410 C.ar    1  UNL1        0.0026
      7 C           1.5720   -0.2440   -2.1900 C.ar    1  UNL1       -0.0498
      8 C           1.3890    0.5670   -3.3120 C.ar    1  UNL1       -0.0258
      9 C           1.5090    1.9450   -3.1850 C.ar    1  UNL1        0.1234
     10 F           1.3260    2.7260   -4.2580 F       1  UNL1       -0.2055
     11 C           1.8160    2.5260   -1.9610 C.ar    1  UNL1       -0.0258
     12 C           1.9990    1.7140   -0.8380 C.ar    1  UNL1       -0.0498
     13 C           1.6730   -0.3420    1.5150 C.ar    1  UNL1        0.0748
     14 C           0.9050    0.7010    2.1810 C.ar    1  UNL1        0.0051
     15 C           1.4160    1.3630    3.2930 C.ar    1  UNL1       -0.0343
     16 C           0.6300    2.3300    3.8900 C.ar    1  UNL1        0.0303
     17 N          -0.6040    2.6690    3.4600 N.ar    1  UNL1       -0.2405
     18 C          -1.0900    2.0290    2.3790 C.ar    1  UNL1        0.1195
     19 N          -2.3810    2.4000    2.0020 N.pl3   1  UNL1       -0.3249
     20 C          -2.4870    2.9710    0.6590 C.3     1  UNL1        0.0357
     21 C          -2.7540    1.9310   -0.4040 C.ar    1  UNL1       -0.0303
     22 C          -2.1240    2.0200   -1.6480 C.ar    1  UNL1       -0.0568
     23 C          -2.3680    1.0660   -2.6410 C.ar    1  UNL1       -0.0578
     24 C          -3.2550   -0.0070   -2.4330 C.ar    1  UNL1       -0.0420
     25 C          -3.4810   -1.0480   -3.5430 C.3     1  UNL1       -0.0127
     26 C          -4.4880   -2.1570   -3.1630 C.3     1  UNL1       -0.0560
     27 C          -2.1440   -1.7410   -3.8820 C.3     1  UNL1       -0.0560
     28 C          -4.0260   -0.3500   -4.8080 C.3     1  UNL1       -0.0560
     29 C          -3.8980   -0.0720   -1.1870 C.ar    1  UNL1       -0.0578
     30 C          -3.6580    0.8840   -0.1930 C.ar    1  UNL1       -0.0568
     31 C          -0.3690    1.0410    1.7210 C.ar    1  UNL1       -0.0127
     32 N           2.1100   -1.4690    2.1780 N.ar    1  UNL1       -0.3324
     33 H           4.4620   -5.3970    0.3670 H       1  UNL1        0.0345
     34 H           3.2180   -4.5100   -0.5330 H       1  UNL1        0.0345
     35 H           4.7880   -3.7390   -0.1730 H       1  UNL1        0.0345
     36 H           1.4820   -1.3240   -2.2900 H       1  UNL1        0.0625
     37 H           1.1550    0.1310   -4.2770 H       1  UNL1        0.0646
     38 H           1.9170    3.6040   -1.8880 H       1  UNL1        0.0646
     39 H           2.2610    2.1800    0.1080 H       1  UNL1        0.0625
     40 H           2.4030    1.1450    3.6860 H       1  UNL1        0.0639
     41 H           0.9810    2.8780    4.7590 H       1  UNL1        0.0830
     42 H          -2.6260    3.1050    2.6970 H       1  UNL1        0.1478
     43 H          -3.3360    3.6670    0.6490 H       1  UNL1        0.0511
     44 H          -1.5980    3.5680    0.4160 H       1  UNL1        0.0511
     45 H          -1.4280    2.8290   -1.8590 H       1  UNL1        0.0621
     46 H          -1.8450    1.1730   -3.5890 H       1  UNL1        0.0621
     47 H          -4.1490   -2.7280   -2.2910 H       1  UNL1        0.0238
     48 H          -4.6160   -2.8720   -3.9850 H       1  UNL1        0.0238
     49 H          -5.4780   -1.7440   -2.9380 H       1  UNL1        0.0238
     50 H          -1.7110   -2.2220   -2.9960 H       1  UNL1        0.0238
     51 H          -2.2830   -2.5130   -4.6470 H       1  UNL1        0.0238
     52 H          -1.3990   -1.0380   -4.2700 H       1  UNL1        0.0238
     53 H          -4.2350   -1.0770   -5.6010 H       1  UNL1        0.0238
     54 H          -4.9580    0.1860   -4.5920 H       1  UNL1        0.0238
     55 H          -3.3160    0.3760   -5.2180 H       1  UNL1        0.0238
     56 H          -4.5990   -0.8670   -0.9510 H       1  UNL1        0.0621
     57 H          -4.1710    0.7950    0.7630 H       1  UNL1        0.0621
     58 H          -0.8030    0.5140    0.8780 H       1  UNL1        0.0658
     59 H           1.9690   -1.6880    3.1530 H       1  UNL1        0.1679
@<TRIPOS>BOND
     1     1     2    1
     2     1    33    1
     3     1    34    1
     4     1    35    1
     5     2     3    1
     6     3     4   ar
     7     3    32   ar
     8     4     5   ar
     9     5     6    1
    10     5    13   ar
    11     6     7   ar
    12     6    12   ar
    13     7     8   ar
    14     7    36    1
    15     8     9   ar
    16     8    37    1
    17     9    10    1
    18     9    11   ar
    19    11    12   ar
    20    11    38    1
    21    12    39    1
    22    13    14    1
    23    13    32   ar
    24    14    15   ar
    25    14    31   ar
    26    15    16   ar
    27    15    40    1
    28    16    17   ar
    29    16    41    1
    30    17    18   ar
    31    18    19    1
    32    18    31   ar
    33    19    20    1
    34    19    42    1
    35    20    21    1
    36    20    43    1
    37    20    44    1
    38    21    22   ar
    39    21    30   ar
    40    22    23   ar
    41    22    45    1
    42    23    24   ar
    43    23    46    1
    44    24    25    1
    45    24    29   ar
    46    25    26    1
    47    25    27    1
    48    25    28    1
    49    26    47    1
    50    26    48    1
    51    26    49    1
    52    27    50    1
    53    27    51    1
    54    27    52    1
    55    28    53    1
    56    28    54    1
    57    28    55    1
    58    29    30   ar
    59    29    56    1
    60    30    57    1
    61    31    58    1
    62    32    59    1
@<TRIPOS>MOLECULE
AD3CC00608237-I01-C00
 53 56 0 0 0
SMALL
GASTEIGER

@<TRIPOS>ATOM
      1 C           0.8260   -5.9220   -3.4560 C.3     1  UNL1       -0.0107
      2 S          -0.8440   -5.2380   -3.5580 S.3     1  UNL1       -0.0913
      3 C          -0.7800   -4.0760   -2.2900 C.ar    1  UNL1        0.1671
      4 N           0.2260   -3.7990   -1.5030 N.ar    1  UNL1       -0.2214
      5 C          -0.2350   -2.7990   -0.6680 C.ar    1  UNL1        0.0977
      6 C           0.6130   -2.2200    0.3640 C.ar    1  UNL1        0.0030
      7 C           1.9870   -2.0900    0.1240 C.ar    1  UNL1       -0.0525
      8 C           2.8330   -1.5440    1.0900 C.ar    1  UNL1       -0.0606
      9 C           2.3140   -1.1250    2.3140 C.ar    1  UNL1       -0.0501
     10 C           0.9460   -1.2620    2.5870 C.ar    1  UNL1        0.0554
     11 C           0.3690   -0.7780    3.8930 C.3     1  UNL1        0.4174
     12 F          -0.6860   -1.5240    4.3250 F       1  UNL1       -0.1659
     13 F          -0.0890    0.5030    3.8040 F       1  UNL1       -0.1659
     14 F           1.2700   -0.7820    4.9150 F       1  UNL1       -0.1659
     15 C           0.1050   -1.8140    1.6050 C.ar    1  UNL1       -0.0409
     16 C          -1.5490   -2.4620   -0.9770 C.ar    1  UNL1        0.0748
     17 C          -2.4790   -1.4550   -0.4830 C.ar    1  UNL1        0.0051
     18 C          -3.7430   -1.8190   -0.0270 C.ar    1  UNL1       -0.0343
     19 C          -4.5810   -0.8190    0.4290 C.ar    1  UNL1        0.0303
     20 N          -4.2450    0.4880    0.4590 N.ar    1  UNL1       -0.2405
     21 C          -3.0180    0.8330    0.0240 C.ar    1  UNL1        0.1197
     22 N          -2.7410    2.1990    0.0690 N.pl3   1  UNL1       -0.3225
     23 C          -1.5790    2.5750    0.8880 C.3     1  UNL1        0.0444
     24 C          -1.8440    3.9430    1.5270 C.3     1  UNL1       -0.0425
     25 C          -0.3080    2.6470    0.0560 C.ar    1  UNL1       -0.0275
     26 C          -0.3050    3.1820   -1.2430 C.ar    1  UNL1       -0.0568
     27 C           0.8750    3.2390   -1.9870 C.ar    1  UNL1       -0.0614
     28 C           2.0670    2.7690   -1.4420 C.ar    1  UNL1       -0.0617
     29 C           2.0830    2.2470   -0.1510 C.ar    1  UNL1       -0.0614
     30 C           0.9050    2.1900    0.5950 C.ar    1  UNL1       -0.0568
     31 C          -2.1180   -0.1060   -0.4630 C.ar    1  UNL1       -0.0127
     32 N          -1.8680   -3.3080   -2.0180 N.ar    1  UNL1       -0.3324
     33 H           1.5730   -5.1440   -3.6340 H       1  UNL1        0.0345
     34 H           0.9980   -6.3760   -2.4760 H       1  UNL1        0.0345
     35 H           0.9440   -6.6950   -4.2200 H       1  UNL1        0.0345
     36 H           2.4040   -2.4150   -0.8280 H       1  UNL1        0.0624
     37 H           3.8960   -1.4460    0.8840 H       1  UNL1        0.0618
     38 H           2.9840   -0.6950    3.0580 H       1  UNL1        0.0623
     39 H          -0.9540   -1.9330    1.8270 H       1  UNL1        0.0630
     40 H          -4.0710   -2.8520   -0.0100 H       1  UNL1        0.0639
     41 H          -5.5770   -1.0470    0.7970 H       1  UNL1        0.0830
     42 H          -3.6010    2.5860    0.4580 H       1  UNL1        0.1480
     43 H          -1.4480    1.8520    1.7040 H       1  UNL1        0.0545
     44 H          -2.7310    3.9050    2.1690 H       1  UNL1        0.0251
     45 H          -0.9960    4.2630    2.1440 H       1  UNL1        0.0251
     46 H          -2.0190    4.7180    0.7710 H       1  UNL1        0.0251
     47 H          -1.2310    3.5460   -1.6830 H       1  UNL1        0.0621
     48 H           0.8590    3.6480   -2.9940 H       1  UNL1        0.0618
     49 H           2.9840    2.8110   -2.0240 H       1  UNL1        0.0618
     50 H           3.0130    1.8810    0.2750 H       1  UNL1        0.0618
     51 H           0.9380    1.7840    1.6030 H       1  UNL1        0.0621
     52 H          -1.1520    0.2060   -0.8450 H       1  UNL1        0.0658
     53 H          -2.7380   -3.3330   -2.5290 H       1  UNL1        0.1679
@<TRIPOS>BOND
     1     1     2    1
     2     1    33    1
     3     1    34    1
     4     1    35    1
     5     2     3    1
     6     3     4   ar
     7     3    32   ar
     8     4     5   ar
     9     5     6    1
    10     5    16   ar
    11     6     7   ar
    12     6    15   ar
    13     7     8   ar
    14     7    36    1
    15     8     9   ar
    16     8    37    1
    17     9    10   ar
    18     9    38    1
    19    10    11    1
    20    10    15   ar
    21    11    12    1
    22    11    13    1
    23    11    14    1
    24    15    39    1
    25    16    17    1
    26    16    32   ar
    27    17    18   ar
    28    17    31   ar
    29    18    19   ar
    30    18    40    1
    31    19    20   ar
    32    19    41    1
    33    20    21   ar
    34    21    22    1
    35    21    31   ar
    36    22    23    1
    37    22    42    1
    38    23    24    1
    39    23    25    1
    40    23    43    1
    41    24    44    1
    42    24    45    1
    43    24    46    1
    44    25    26   ar
    45    25    30   ar
    46    26    27   ar
    47    26    47    1
    48    27    28   ar
    49    27    48    1
    50    28    29   ar
    51    28    49    1
    52    29    30   ar
    53    29    50    1
    54    30    51    1
    55    31    52    1
    56    32    53    1
@<TRIPOS>MOLECULE
AD3CC00608240-I00-C01
 52 54 0 0 0
SMALL
GASTEIGER

@<TRIPOS>ATOM
      1 C           4.6480   -1.2150    5.6800 C.3     1  UNL1       -0.0107
      2 S           3.4550   -2.5200    5.3090 S.3     1  UNL1       -0.0913
      3 C           2.7980   -1.9270    3.8320 C.ar    1  UNL1        0.1671
      4 N           3.1020   -0.8230    3.2030 N.ar    1  UNL1       -0.2214
      5 C           2.2980   -0.8180    2.0810 C.ar    1  UNL1        0.0977
      6 C           2.3460    0.2690    1.1170 C.ar    1  UNL1        0.0030
      7 C           2.4860    1.5840    1.5780 C.ar    1  UNL1       -0.0525
      8 C           2.5260    2.6530    0.6820 C.ar    1  UNL1       -0.0606
      9 C           2.4370    2.4150   -0.6890 C.ar    1  UNL1       -0.0501
     10 C           2.3230    1.1050   -1.1780 C.ar    1  UNL1        0.0554
     11 C           2.2120    0.8540   -2.6600 C.3     1  UNL1        0.4174
     12 F           2.5370   -0.4170   -3.0230 F       1  UNL1       -0.1659
     13 F           0.9470    1.0630   -3.1210 F       1  UNL1       -0.1659
     14 F           3.0170    1.6690   -3.3980 F       1  UNL1       -0.1659
     15 C           2.2780    0.0370   -0.2640 C.ar    1  UNL1       -0.0409
     16 C           1.4740   -1.9400    2.0500 C.ar    1  UNL1        0.0748
     17 C           0.4020   -2.3880    1.1660 C.ar    1  UNL1        0.0051
     18 C           0.3480   -3.7060    0.7200 C.ar    1  UNL1       -0.0343
     19 C          -0.6990   -4.0720   -0.1070 C.ar    1  UNL1        0.0303
     20 N          -1.6690   -3.2260   -0.5140 N.ar    1  UNL1       -0.2405
     21 C          -1.6000   -1.9500   -0.0950 C.ar    1  UNL1        0.1195
     22 N          -2.6180   -1.1110   -0.5430 N.pl3   1  UNL1       -0.3262
     23 C          -2.1880    0.0650   -1.3210 C.3     1  UNL1        0.0214
     24 C          -1.9550   -0.3590   -2.7770 C.3     1  UNL1       -0.0464
     25 C          -3.2820    1.1600   -1.1870 C.3     1  UNL1       -0.0285
     26 C          -3.4290    1.6120    0.2730 C.3     1  UNL1       -0.0610
     27 C          -2.9910    2.3890   -2.0550 C.3     1  UNL1       -0.0610
     28 C          -0.5970   -1.5030    0.7550 C.ar    1  UNL1       -0.0127
     29 N           1.8320   -2.6350    3.1860 N.ar    1  UNL1       -0.3324
     30 H           4.1430   -0.2530    5.8010 H       1  UNL1        0.0345
     31 H           5.3950   -1.1370    4.8860 H       1  UNL1        0.0345
     32 H           5.1630   -1.4550    6.6150 H       1  UNL1        0.0345
     33 H           2.5610    1.7790    2.6470 H       1  UNL1        0.0624
     34 H           2.6290    3.6690    1.0550 H       1  UNL1        0.0618
     35 H           2.4670    3.2570   -1.3800 H       1  UNL1        0.0623
     36 H           2.2000   -0.9820   -0.6410 H       1  UNL1        0.0630
     37 H           1.1010   -4.4370    0.9910 H       1  UNL1        0.0639
     38 H          -0.7880   -5.0880   -0.4810 H       1  UNL1        0.0830
     39 H          -3.2260   -1.7180   -1.0930 H       1  UNL1        0.1477
     40 H          -1.2490    0.4780   -0.9310 H       1  UNL1        0.0498
     41 H          -1.5570    0.4640   -3.3760 H       1  UNL1        0.0248
     42 H          -1.2310   -1.1790   -2.8390 H       1  UNL1        0.0248
     43 H          -2.8850   -0.7030   -3.2430 H       1  UNL1        0.0248
     44 H          -4.2470    0.7430   -1.5060 H       1  UNL1        0.0313
     45 H          -3.7320    0.7830    0.9210 H       1  UNL1        0.0233
     46 H          -2.4870    2.0170    0.6580 H       1  UNL1        0.0233
     47 H          -4.1950    2.3900    0.3640 H       1  UNL1        0.0233
     48 H          -3.0460    2.1470   -3.1210 H       1  UNL1        0.0233
     49 H          -3.7260    3.1800   -1.8700 H       1  UNL1        0.0233
     50 H          -1.9960    2.7960   -1.8450 H       1  UNL1        0.0233
     51 H          -0.6110   -0.4770    1.1090 H       1  UNL1        0.0658
     52 H           1.4240   -3.4940    3.5220 H       1  UNL1        0.1679
@<TRIPOS>BOND
     1     1     2    1
     2     1    30    1
     3     1    31    1
     4     1    32    1
     5     2     3    1
     6     3     4   ar
     7     3    29   ar
     8     4     5   ar
     9     5     6    1
    10     5    16   ar
    11     6     7   ar
    12     6    15   ar
    13     7     8   ar
    14     7    33    1
    15     8     9   ar
    16     8    34    1
    17     9    10   ar
    18     9    35    1
    19    10    11    1
    20    10    15   ar
    21    11    12    1
    22    11    13    1
    23    11    14    1
    24    15    36    1
    25    16    17    1
    26    16    29   ar
    27    17    18   ar
    28    17    28   ar
    29    18    19   ar
    30    18    37    1
    31    19    20   ar
    32    19    38    1
    33    20    21   ar
    34    21    22    1
    35    21    28   ar
    36    22    23    1
    37    22    39    1
    38    23    24    1
    39    23    25    1
    40    23    40    1
    41    24    41    1
    42    24    42    1
    43    24    43    1
    44    25    26    1
    45    25    27    1
    46    25    44    1
    47    26    45    1
    48    26    46    1
    49    26    47    1
    50    27    48    1
    51    27    49    1
    52    27    50    1
    53    28    51    1
    54    29    52    1
@<TRIPOS>MOLECULE
AD3CC00608241-I00-C00
 47 49 0 0 0
SMALL
GASTEIGER

@<TRIPOS>ATOM
      1 C           2.8730   -4.5980    4.2890 C.3     1  UNL1       -0.0107
      2 S           2.9500   -5.0610    2.5430 S.3     1  UNL1       -0.0913
      3 C           1.9710   -3.8240    1.8520 C.ar    1  UNL1        0.1671
      4 N           1.3700   -2.8380    2.4650 N.ar    1  UNL1       -0.2214
      5 C           0.7220   -2.1390    1.4670 C.ar    1  UNL1        0.0977
      6 C          -0.0670   -0.9520    1.7570 C.ar    1  UNL1        0.0030
      7 C          -1.2740   -0.6860    1.0990 C.ar    1  UNL1       -0.0525
      8 C          -1.9980    0.4720    1.3870 C.ar    1  UNL1       -0.0606
      9 C          -1.5320    1.3670    2.3500 C.ar    1  UNL1       -0.0501
     10 C          -0.3410    1.1080    3.0440 C.ar    1  UNL1        0.0554
     11 C           0.1750    2.0790    4.0750 C.3     1  UNL1        0.4174
     12 F           0.8910    1.4850    5.0690 F       1  UNL1       -0.1659
     13 F           0.9990    3.0170    3.5300 F       1  UNL1       -0.1659
     14 F          -0.8180    2.7750    4.6980 F       1  UNL1       -0.1659
     15 C           0.3850   -0.0550    2.7360 C.ar    1  UNL1       -0.0409
     16 C           0.9660   -2.7080    0.2200 C.ar    1  UNL1        0.0748
     17 C           0.6110   -2.3350   -1.1450 C.ar    1  UNL1        0.0051
     18 C           0.0680   -3.2670   -2.0240 C.ar    1  UNL1       -0.0343
     19 C          -0.2630   -2.8430   -3.2990 C.ar    1  UNL1        0.0303
     20 N          -0.0990   -1.5770   -3.7390 N.ar    1  UNL1       -0.2405
     21 C           0.4160   -0.6790   -2.8800 C.ar    1  UNL1        0.1193
     22 N           0.5610    0.6170   -3.3790 N.pl3   1  UNL1       -0.3290
     23 C          -0.1120    1.6440   -2.5800 C.3     1  UNL1        0.0125
     24 C          -0.0130    2.9870   -3.3050 C.3     1  UNL1       -0.0141
     25 C          -0.5520    4.1300   -2.4580 C.3     1  UNL1        0.0456
     26 O          -1.9220    3.9090   -2.1560 O.3     1  UNL1       -0.3950
     27 C           0.8020   -1.0260   -1.5920 C.ar    1  UNL1       -0.0127
     28 N           1.7600   -3.7970    0.5090 N.ar    1  UNL1       -0.3324
     29 H           3.4620   -5.3090    4.8750 H       1  UNL1        0.0345
     30 H           3.2870   -3.5980    4.4420 H       1  UNL1        0.0345
     31 H           1.8410   -4.6240    4.6500 H       1  UNL1        0.0345
     32 H          -1.6680   -1.3780    0.3590 H       1  UNL1        0.0624
     33 H          -2.9290    0.6730    0.8620 H       1  UNL1        0.0618
     34 H          -2.1070    2.2670    2.5640 H       1  UNL1        0.0623
     35 H           1.3160   -0.2660    3.2630 H       1  UNL1        0.0630
     36 H          -0.1140   -4.2950   -1.7320 H       1  UNL1        0.0639
     37 H          -0.6900   -3.5300   -4.0240 H       1  UNL1        0.0830
     38 H           0.1700    0.5570   -4.3190 H       1  UNL1        0.1474
     39 H          -1.1660    1.3780   -2.4290 H       1  UNL1        0.0462
     40 H           0.3640    1.7360   -1.5970 H       1  UNL1        0.0462
     41 H          -0.5790    2.9250   -4.2430 H       1  UNL1        0.0302
     42 H           1.0310    3.1950   -3.5700 H       1  UNL1        0.0302
     43 H           0.0040    4.2190   -1.5190 H       1  UNL1        0.0557
     44 H          -0.4660    5.0740   -3.0060 H       1  UNL1        0.0557
     45 H          -2.2410    4.7010   -1.6880 H       1  UNL1        0.2094
     46 H           1.2540   -0.2820   -0.9440 H       1  UNL1        0.0658
     47 H           2.1640   -4.4420   -0.1530 H       1  UNL1        0.1679
@<TRIPOS>BOND
     1     1     2    1
     2     1    29    1
     3     1    30    1
     4     1    31    1
     5     2     3    1
     6     3     4   ar
     7     3    28   ar
     8     4     5   ar
     9     5     6    1
    10     5    16   ar
    11     6     7   ar
    12     6    15   ar
    13     7     8   ar
    14     7    32    1
    15     8     9   ar
    16     8    33    1
    17     9    10   ar
    18     9    34    1
    19    10    11    1
    20    10    15   ar
    21    11    12    1
    22    11    13    1
    23    11    14    1
    24    15    35    1
    25    16    17    1
    26    16    28   ar
    27    17    18   ar
    28    17    27   ar
    29    18    19   ar
    30    18    36    1
    31    19    20   ar
    32    19    37    1
    33    20    21   ar
    34    21    22    1
    35    21    27   ar
    36    22    23    1
    37    22    38    1
    38    23    24    1
    39    23    39    1
    40    23    40    1
    41    24    25    1
    42    24    41    1
    43    24    42    1
    44    25    26    1
    45    25    43    1
    46    25    44    1
    47    26    45    1
    48    27    46    1
    49    28    47    1
@<TRIPOS>MOLECULE
AD3CC00608249-I00-C00
 49 52 0 0 0
SMALL
GASTEIGER

@<TRIPOS>ATOM
      1 C          -7.0780    0.6430    1.6170 C.3     1  UNL1       -0.0107
      2 S          -5.9180    1.9770    1.9920 S.3     1  UNL1       -0.0913
      3 C          -4.4790    1.3420    1.2930 C.ar    1  UNL1        0.1671
      4 N          -4.3180    0.1950    0.6870 N.ar    1  UNL1       -0.2214
      5 C          -2.9890    0.1700    0.3150 C.ar    1  UNL1        0.0977
      6 C          -2.4140   -0.9600   -0.3980 C.ar    1  UNL1        0.0026
      7 C          -2.8340   -2.2590   -0.0720 C.ar    1  UNL1       -0.0498
      8 C          -2.2920   -3.3660   -0.7300 C.ar    1  UNL1       -0.0258
      9 C          -1.3380   -3.1730   -1.7220 C.ar    1  UNL1        0.1234
     10 F          -0.8120   -4.2340   -2.3480 F       1  UNL1       -0.2055
     11 C          -0.9240   -1.8950   -2.0750 C.ar    1  UNL1       -0.0258
     12 C          -1.4650   -0.7880   -1.4180 C.ar    1  UNL1       -0.0498
     13 C          -2.3330    1.3230    0.7360 C.ar    1  UNL1        0.0749
     14 C          -0.9450    1.7660    0.6830 C.ar    1  UNL1        0.0069
     15 C          -0.6130    3.0140    0.1570 C.ar    1  UNL1       -0.0342
     16 C           0.7260    3.3700    0.1010 C.ar    1  UNL1        0.0320
     17 N           1.7320    2.5780    0.5240 N.ar    1  UNL1       -0.2213
     18 C           1.3840    1.3720    1.0170 C.ar    1  UNL1        0.2158
     19 O           2.3620    0.5260    1.4940 O.3     1  UNL1       -0.4686
     20 C           3.5690    0.5580    0.7170 C.3     1  UNL1        0.1240
     21 C           4.6830   -0.0130    1.5970 C.3     1  UNL1       -0.0235
     22 C           3.4090   -0.2720   -0.5480 C.ar    1  UNL1       -0.0076
     23 C           3.7340    0.2810   -1.7960 C.ar    1  UNL1       -0.0551
     24 C           3.5930   -0.4700   -2.9640 C.ar    1  UNL1       -0.0614
     25 C           3.1260   -1.7810   -2.9000 C.ar    1  UNL1       -0.0617
     26 C           2.7930   -2.3420   -1.6690 C.ar    1  UNL1       -0.0614
     27 C           2.9320   -1.5920   -0.5000 C.ar    1  UNL1       -0.0551
     28 C           0.0770    0.9360    1.1420 C.ar    1  UNL1        0.0092
     29 N          -3.3250    2.0600    1.3460 N.ar    1  UNL1       -0.3324
     30 H          -6.7580   -0.2910    2.0880 H       1  UNL1        0.0345
     31 H          -8.0650    0.9050    2.0060 H       1  UNL1        0.0345
     32 H          -7.1610    0.4960    0.5360 H       1  UNL1        0.0345
     33 H          -3.5840   -2.4100    0.7020 H       1  UNL1        0.0625
     34 H          -2.6100   -4.3720   -0.4750 H       1  UNL1        0.0646
     35 H          -0.1820   -1.7640   -2.8560 H       1  UNL1        0.0646
     36 H          -1.1400    0.2050   -1.7170 H       1  UNL1        0.0625
     37 H          -1.3670    3.6920   -0.2260 H       1  UNL1        0.0639
     38 H           1.0320    4.3300   -0.3050 H       1  UNL1        0.0831
     39 H           3.8630    1.5870    0.4730 H       1  UNL1        0.0782
     40 H           4.4440   -1.0220    1.9500 H       1  UNL1        0.0269
     41 H           4.8110    0.6060    2.4910 H       1  UNL1        0.0269
     42 H           5.6370   -0.0510    1.0610 H       1  UNL1        0.0269
     43 H           4.0940    1.3060   -1.8640 H       1  UNL1        0.0621
     44 H           3.8490   -0.0310   -3.9250 H       1  UNL1        0.0618
     45 H           3.0170   -2.3660   -3.8100 H       1  UNL1        0.0618
     46 H           2.4200   -3.3620   -1.6180 H       1  UNL1        0.0618
     47 H           2.6590   -2.0400    0.4530 H       1  UNL1        0.0621
     48 H          -0.1280   -0.0400    1.5660 H       1  UNL1        0.0677
     49 H          -3.2210    2.9550    1.8000 H       1  UNL1        0.1679
@<TRIPOS>BOND
     1     1     2    1
     2     1    30    1
     3     1    31    1
     4     1    32    1
     5     2     3    1
     6     3     4   ar
     7     3    29   ar
     8     4     5   ar
     9     5     6    1
    10     5    13   ar
    11     6     7   ar
    12     6    12   ar
    13     7     8   ar
    14     7    33    1
    15     8     9   ar
    16     8    34    1
    17     9    10    1
    18     9    11   ar
    19    11    12   ar
    20    11    35    1
    21    12    36    1
    22    13    14    1
    23    13    29   ar
    24    14    15   ar
    25    14    28   ar
    26    15    16   ar
    27    15    37    1
    28    16    17   ar
    29    16    38    1
    30    17    18   ar
    31    18    19    1
    32    18    28   ar
    33    19    20    1
    34    20    21    1
    35    20    22    1
    36    20    39    1
    37    21    40    1
    38    21    41    1
    39    21    42    1
    40    22    23   ar
    41    22    27   ar
    42    23    24   ar
    43    23    43    1
    44    24    25   ar
    45    24    44    1
    46    25    26   ar
    47    25    45    1
    48    26    27   ar
    49    26    46    1
    50    27    47    1
    51    28    48    1
    52    29    49    1
@<TRIPOS>MOLECULE
AD3CC00608298-I00-C02
 56 59 0 0 0
SMALL
GASTEIGER

@<TRIPOS>ATOM
      1 C          -5.3160   -1.7070   -4.7090 C.3     1  UNL1       -0.0107
      2 S          -5.0440   -1.0390   -3.0510 S.3     1  UNL1       -0.0913
      3 C          -3.3230   -0.9930   -3.0160 C.ar    1  UNL1        0.1671
      4 N          -2.4900   -1.3220   -3.9680 N.ar    1  UNL1       -0.2214
      5 C          -1.2350   -1.1080   -3.4340 C.ar    1  UNL1        0.0976
      6 C          -0.0270   -1.3790   -4.1980 C.ar    1  UNL1        0.0026
      7 C          -0.0130   -1.0990   -5.5730 C.ar    1  UNL1       -0.0498
      8 C           1.1290   -1.3510   -6.3370 C.ar    1  UNL1       -0.0258
      9 C           2.2540   -1.8910   -5.7270 C.ar    1  UNL1        0.1234
     10 F           3.3500   -2.1330   -6.4580 F       1  UNL1       -0.2055
     11 C           2.2570   -2.1910   -4.3700 C.ar    1  UNL1       -0.0258
     12 C           1.1140   -1.9400   -3.6060 C.ar    1  UNL1       -0.0498
     13 C          -1.3220   -0.6050   -2.1400 C.ar    1  UNL1        0.0748
     14 C          -0.3440   -0.1300   -1.1680 C.ar    1  UNL1        0.0051
     15 C           0.6200    0.8050   -1.5320 C.ar    1  UNL1       -0.0343
     16 C           1.5270    1.2110   -0.5720 C.ar    1  UNL1        0.0303
     17 N           1.5260    0.7620    0.7010 N.ar    1  UNL1       -0.2405
     18 C           0.5830   -0.1310    1.0520 C.ar    1  UNL1        0.1195
     19 N           0.6450   -0.5640    2.3690 N.pl3   1  UNL1       -0.3262
     20 C          -0.5720   -0.5020    3.1880 C.3     1  UNL1        0.0219
     21 C          -0.3010   -1.3060    4.4640 C.3     1  UNL1       -0.0464
     22 C          -1.0190    0.9660    3.4460 C.3     1  UNL1       -0.0229
     23 C          -2.4400    1.0230    4.0400 C.3     1  UNL1       -0.0485
     24 C          -2.9160    2.4630    4.2240 C.3     1  UNL1       -0.0527
     25 C          -1.9420    3.2720    5.0740 C.3     1  UNL1       -0.0530
     26 C          -0.5260    3.2150    4.5120 C.3     1  UNL1       -0.0527
     27 C          -0.0490    1.7740    4.3290 C.3     1  UNL1       -0.0485
     28 C          -0.3580   -0.6040    0.1470 C.ar    1  UNL1       -0.0127
     29 N          -2.6790   -0.5640   -1.8980 N.ar    1  UNL1       -0.3324
     30 H          -4.8620   -2.6970   -4.8060 H       1  UNL1        0.0345
     31 H          -6.3910   -1.8020   -4.8850 H       1  UNL1        0.0345
     32 H          -4.8990   -1.0390   -5.4680 H       1  UNL1        0.0345
     33 H          -0.8970   -0.6840   -6.0530 H       1  UNL1        0.0625
     34 H           1.1430   -1.1330   -7.4000 H       1  UNL1        0.0646
     35 H           3.1420   -2.6240   -3.9160 H       1  UNL1        0.0646
     36 H           1.1230   -2.2020   -2.5500 H       1  UNL1        0.0625
     37 H           0.6750    1.2080   -2.5370 H       1  UNL1        0.0639
     38 H           2.3050    1.9320   -0.8070 H       1  UNL1        0.0830
     39 H           1.4250   -0.0510    2.7790 H       1  UNL1        0.1477
     40 H          -1.3850   -1.0220    2.6650 H       1  UNL1        0.0498
     41 H          -1.1720   -1.3230    5.1260 H       1  UNL1        0.0248
     42 H          -0.0610   -2.3460    4.2130 H       1  UNL1        0.0248
     43 H           0.5530   -0.9110    5.0240 H       1  UNL1        0.0248
     44 H          -1.0700    1.4760    2.4740 H       1  UNL1        0.0318
     45 H          -2.4710    0.5160    5.0110 H       1  UNL1        0.0269
     46 H          -3.1410    0.4970    3.3810 H       1  UNL1        0.0269
     47 H          -3.9060    2.4660    4.6940 H       1  UNL1        0.0265
     48 H          -3.0280    2.9390    3.2420 H       1  UNL1        0.0265
     49 H          -1.9430    2.8840    6.1000 H       1  UNL1        0.0265
     50 H          -2.2770    4.3150    5.1270 H       1  UNL1        0.0265
     51 H          -0.4930    3.7350    3.5460 H       1  UNL1        0.0265
     52 H           0.1580    3.7460    5.1830 H       1  UNL1        0.0265
     53 H           0.0450    1.3100    5.3170 H       1  UNL1        0.0269
     54 H           0.9520    1.7910    3.8840 H       1  UNL1        0.0269
     55 H          -1.0680   -1.3640    0.4520 H       1  UNL1        0.0658
     56 H          -3.1330   -0.2320   -1.0600 H       1  UNL1        0.1679
@<TRIPOS>BOND
     1     1     2    1
     2     1    30    1
     3     1    31    1
     4     1    32    1
     5     2     3    1
     6     3     4   ar
     7     3    29   ar
     8     4     5   ar
     9     5     6    1
    10     5    13   ar
    11     6     7   ar
    12     6    12   ar
    13     7     8   ar
    14     7    33    1
    15     8     9   ar
    16     8    34    1
    17     9    10    1
    18     9    11   ar
    19    11    12   ar
    20    11    35    1
    21    12    36    1
    22    13    14    1
    23    13    29   ar
    24    14    15   ar
    25    14    28   ar
    26    15    16   ar
    27    15    37    1
    28    16    17   ar
    29    16    38    1
    30    17    18   ar
    31    18    19    1
    32    18    28   ar
    33    19    20    1
    34    19    39    1
    35    20    21    1
    36    20    22    1
    37    20    40    1
    38    21    41    1
    39    21    42    1
    40    21    43    1
    41    22    23    1
    42    22    27    1
    43    22    44    1
    44    23    24    1
    45    23    45    1
    46    23    46    1
    47    24    25    1
    48    24    47    1
    49    24    48    1
    50    25    26    1
    51    25    49    1
    52    25    50    1
    53    26    27    1
    54    26    51    1
    55    26    52    1
    56    27    53    1
    57    27    54    1
    58    28    55    1
    59    29    56    1
@<TRIPOS>MOLECULE
AD3CC00608313-I00-C00
 54 56 0 0 0
SMALL
GASTEIGER

@<TRIPOS>ATOM
      1 C           1.9920    4.0470    2.1270 C.3     0  UNK0        0.0365
      2 O           0.9150    3.1170    2.1490 O.3     0  UNK0       -0.3812
      3 C           1.3750    1.7860    2.4060 C.3     0  UNK0        0.0653
      4 C           0.1680    0.8570    2.5030 C.3     0  UNK0        0.0491
      5 N           0.4940   -0.5210    2.1770 N.ar    0  UNK0       -0.3160
      6 C           1.0450   -1.4540    3.0190 C.ar    0  UNK0        0.1698
      7 S           1.5150   -1.1050    4.6500 S.3     0  UNK0       -0.0911
      8 C           2.1360   -2.7210    5.1710 C.3     0  UNK0       -0.0107
      9 N           1.1670   -2.6210    2.4390 N.ar    0  UNK0       -0.2212
     10 C           0.6980   -2.4500    1.1580 C.ar    0  UNK0        0.0979
     11 C           0.6660   -3.5520    0.2080 C.ar    0  UNK0        0.0026
     12 C           0.3680   -4.8430    0.6740 C.ar    0  UNK0       -0.0498
     13 C           0.3300   -5.9270   -0.2070 C.ar    0  UNK0       -0.0258
     14 C           0.5980   -5.7210   -1.5540 C.ar    0  UNK0        0.1234
     15 F           0.5620   -6.7590   -2.4000 F       0  UNK0       -0.2055
     16 C           0.9100   -4.4560   -2.0350 C.ar    0  UNK0       -0.0258
     17 C           0.9490   -3.3710   -1.1540 C.ar    0  UNK0       -0.0498
     18 C           0.2600   -1.1460    0.9580 C.ar    0  UNK0        0.0775
     19 C          -0.3820   -0.5000   -0.1840 C.ar    0  UNK0        0.0053
     20 C          -1.6430   -0.9080   -0.6090 C.ar    0  UNK0       -0.0343
     21 C          -2.2220   -0.2340   -1.6690 C.ar    0  UNK0        0.0303
     22 N          -1.6430    0.8080   -2.3060 N.ar    0  UNK0       -0.2405
     23 C          -0.4170    1.1810   -1.8950 C.ar    0  UNK0        0.1195
     24 N           0.1240    2.2850   -2.5490 N.pl3   1  ALA1       -0.3243
     25 CA          0.3060    3.4790   -1.6950 C.3     1  ALA1        0.0422
     26 CB          0.8600    4.5960   -2.5830 C.3     1  ALA1       -0.0445
     27 C          -1.0150    3.9280   -1.0280 C.3     1  ALA1        0.0623
     28 O          -2.0850    3.9790   -1.9730 O.3     1  ALA1       -0.3932
     29 C           0.2480    0.5470   -0.8560 C.ar    0  UNK0       -0.0127
     30 H           2.7060    3.7860    1.3400 H       0  UNK0        0.0523
     31 H           1.5840    5.0380    1.9150 H       0  UNK0        0.0523
     32 H           2.4920    4.0740    3.0990 H       0  UNK0        0.0523
     33 H           1.9430    1.7670    3.3420 H       0  UNK0        0.0577
     34 H           2.0440    1.4840    1.5930 H       0  UNK0        0.0577
     35 H          -0.6380    1.1910    1.8410 H       0  UNK0        0.0515
     36 H          -0.2650    0.8860    3.5090 H       0  UNK0        0.0515
     37 H           1.3460   -3.4750    5.1130 H       0  UNK0        0.0345
     38 H           2.4760   -2.6570    6.2080 H       0  UNK0        0.0345
     39 H           2.9810   -3.0280    4.5490 H       0  UNK0        0.0345
     40 H           0.1660   -5.0060    1.7310 H       0  UNK0        0.0625
     41 H           0.0980   -6.9240    0.1510 H       0  UNK0        0.0646
     42 H           1.1270   -4.3200   -3.0900 H       0  UNK0        0.0646
     43 H           1.2190   -2.3940   -1.5450 H       0  UNK0        0.0625
     44 H          -2.1680   -1.7270   -0.1280 H       0  UNK0        0.0639
     45 H          -3.2030   -0.5170   -2.0400 H       0  UNK0        0.0830
     46 H          -0.5380    2.4980   -3.2970 H       1  ALA1        0.1478
     47 HA          1.0510    3.2780   -0.9160 H       1  ALA1        0.0518
     48 HB1         0.1660    4.8500   -3.3930 H       1  ALA1        0.0248
     49 HB2         1.0470    5.5030   -1.9980 H       1  ALA1        0.0248
     50 HB3         1.8060    4.2910   -3.0440 H       1  ALA1        0.0248
     51 H1         -0.9050    4.9220   -0.5830 H       1  ALA1        0.0575
     52 H2         -1.3080    3.2430   -0.2250 H       1  ALA1        0.0575
     53 H          -2.2850    3.0470   -2.1980 H       1  ALA1        0.2095
     54 H           1.2460    0.8690   -0.5820 H       0  UNK0        0.0658
@<TRIPOS>BOND
     1     1     2    1
     2     1    30    1
     3     1    31    1
     4     1    32    1
     5     2     3    1
     6     3     4    1
     7     3    33    1
     8     3    34    1
     9     4     5    1
    10     4    35    1
    11     4    36    1
    12     5     6   ar
    13     5    18   ar
    14     6     7    1
    15     6     9   ar
    16     7     8    1
    17     8    37    1
    18     8    38    1
    19     8    39    1
    20     9    10   ar
    21    10    11    1
    22    10    18   ar
    23    11    12   ar
    24    11    17   ar
    25    12    13   ar
    26    12    40    1
    27    13    14   ar
    28    13    41    1
    29    14    15    1
    30    14    16   ar
    31    16    17   ar
    32    16    42    1
    33    17    43    1
    34    18    19    1
    35    19    20   ar
    36    19    29   ar
    37    20    21   ar
    38    20    44    1
    39    21    22   ar
    40    21    45    1
    41    22    23   ar
    42    23    24    1
    43    23    29   ar
    44    24    25    1
    45    24    46    1
    46    25    26    1
    47    25    27    1
    48    25    47    1
    49    26    48    1
    50    26    49    1
    51    26    50    1
    52    27    28    1
    53    27    51    1
    54    27    52    1
    55    28    53    1
    56    29    54    1
@<TRIPOS>MOLECULE
AD3CC00608416-I00-C00
 45 48 0 0 0
SMALL
GASTEIGER

@<TRIPOS>ATOM
      1 C          -3.9570    2.6940   -1.4350 C.3     1  UNL1        0.0819
      2 O          -2.5750    2.4280   -1.6330 O.3     1  UNL1       -0.4657
      3 C          -2.1120    1.3850   -0.8620 C.ar    1  UNL1        0.3182
      4 N          -2.9100    0.8320    0.0660 N.ar    1  UNL1       -0.2033
      5 C          -2.3660   -0.1570    0.7980 C.ar    1  UNL1        0.0350
      6 C          -1.0760   -0.5960    0.6350 C.ar    1  UNL1       -0.0158
      7 C          -0.3480    0.0450   -0.3440 C.ar    1  UNL1        0.0962
      8 C           1.0340   -0.3140   -0.6330 C.ar    1  UNL1        0.0954
      9 C           1.6430   -1.5410   -0.8740 C.ar    1  UNL1        0.0982
     10 C           0.9950   -2.8380   -0.9740 C.ar    1  UNL1        0.0027
     11 C          -0.1860   -3.0120   -1.7110 C.ar    1  UNL1       -0.0498
     12 C          -0.7880   -4.2710   -1.7890 C.ar    1  UNL1       -0.0258
     13 C          -0.2020   -5.3530   -1.1430 C.ar    1  UNL1        0.1234
     14 F          -0.7800   -6.5590   -1.2200 F       1  UNL1       -0.2055
     15 C           0.9790   -5.2040   -0.4250 C.ar    1  UNL1       -0.0258
     16 C           1.5810   -3.9470   -0.3460 C.ar    1  UNL1       -0.0498
     17 N           3.0070   -1.4060   -0.9950 N.ar    1  UNL1       -0.2351
     18 C           3.2370   -0.1190   -0.8960 C.ar    1  UNL1        0.0974
     19 N           2.0850    0.5840   -0.6690 N.ar    1  UNL1       -0.3240
     20 C           2.0390    2.0290   -0.4870 C.3     1  UNL1        0.0498
     21 C           1.7130    2.4210    0.9360 C.ar    1  UNL1       -0.0276
     22 C           0.5810    3.2030    1.2080 C.ar    1  UNL1       -0.0557
     23 C           0.2640    3.5690    2.5190 C.ar    1  UNL1       -0.0440
     24 C           1.0830    3.1650    3.5760 C.ar    1  UNL1        0.0518
     25 C           0.7580    3.5370    4.9220 C.1     1  UNL1        0.0992
     26 N           0.4940    3.8360    6.0120 N.1     1  UNL1       -0.1909
     27 C           2.2210    2.3970    3.3160 C.ar    1  UNL1       -0.0440
     28 C           2.5360    2.0290    2.0040 C.ar    1  UNL1       -0.0557
     29 N          -0.8400    1.0420   -1.1010 N.ar    1  UNL1       -0.1934
     30 H          -4.2420    3.5010   -2.1170 H       1  UNL1        0.0661
     31 H          -4.5720    1.8210   -1.6790 H       1  UNL1        0.0661
     32 H          -4.1520    3.0400   -0.4140 H       1  UNL1        0.0661
     33 H          -3.0190   -0.5980    1.5450 H       1  UNL1        0.0832
     34 H          -0.6650   -1.3910    1.2430 H       1  UNL1        0.0655
     35 H          -0.6380   -2.1780   -2.2430 H       1  UNL1        0.0625
     36 H          -1.7010   -4.4140   -2.3580 H       1  UNL1        0.0646
     37 H           1.4270   -6.0650    0.0600 H       1  UNL1        0.0646
     38 H           2.5130   -3.8310    0.2050 H       1  UNL1        0.0625
     39 H           4.2090    0.3500   -0.9710 H       1  UNL1        0.1029
     40 H           1.3200    2.4320   -1.2080 H       1  UNL1        0.0542
     41 H           3.0190    2.4410   -0.7570 H       1  UNL1        0.0542
     42 H          -0.0730    3.5250    0.3980 H       1  UNL1        0.0621
     43 H          -0.6250    4.1680    2.7050 H       1  UNL1        0.0630
     44 H           2.8700    2.0770    4.1300 H       1  UNL1        0.0630
     45 H           3.4260    1.4280    1.8260 H       1  UNL1        0.0621
@<TRIPOS>BOND
     1     1     2    1
     2     1    30    1
     3     1    31    1
     4     1    32    1
     5     2     3    1
     6     3     4   ar
     7     3    29   ar
     8     4     5   ar
     9     5     6   ar
    10     5    33    1
    11     6     7   ar
    12     6    34    1
    13     7     8    1
    14     7    29   ar
    15     8     9   ar
    16     8    19   ar
    17     9    10    1
    18     9    17   ar
    19    10    11   ar
    20    10    16   ar
    21    11    12   ar
    22    11    35    1
    23    12    13   ar
    24    12    36    1
    25    13    14    1
    26    13    15   ar
    27    15    16   ar
    28    15    37    1
    29    16    38    1
    30    17    18   ar
    31    18    19   ar
    32    18    39    1
    33    19    20    1
    34    20    21    1
    35    20    40    1
    36    20    41    1
    37    21    22   ar
    38    21    28   ar
    39    22    23   ar
    40    22    42    1
    41    23    24   ar
    42    23    43    1
    43    24    25    1
    44    24    27   ar
    45    25    26    3
    46    27    28   ar
    47    27    44    1
    48    28    45    1
@<TRIPOS>MOLECULE
AD3CC00608456-I00-C01
 62 66 0 0 0
SMALL
GASTEIGER

@<TRIPOS>ATOM
      1 C           2.1090    2.7760   -0.5710 C.3     1  UNL1       -0.0424
      2 C           0.6230    2.7990   -0.9410 C.3     1  UNL1        0.0457
      3 N           0.2790    1.6320   -1.7480 N.pl3   1  UNL1       -0.3069
      4 C          -0.1980    0.5400   -1.0420 C.ar    1  UNL1        0.2162
      5 N          -1.1170   -0.1920   -1.6830 N.ar    1  UNL1       -0.2229
      6 C          -1.5810   -1.2880   -1.0520 C.ar    1  UNL1        0.0333
      7 C          -1.1390   -1.6920    0.1790 C.ar    1  UNL1       -0.0159
      8 C          -0.1700   -0.8930    0.7380 C.ar    1  UNL1        0.0945
      9 C           0.4620   -1.2280    2.0030 C.ar    1  UNL1        0.0953
     10 C          -0.0580   -1.4500    3.2720 C.ar    1  UNL1        0.0982
     11 C          -1.4460   -1.3220    3.6870 C.ar    1  UNL1        0.0027
     12 C          -1.9880   -2.2730    4.5650 C.ar    1  UNL1       -0.0498
     13 C          -3.3180   -2.1780    4.9800 C.ar    1  UNL1       -0.0258
     14 C          -4.1020   -1.1260    4.5240 C.ar    1  UNL1        0.1234
     15 F          -5.3780   -1.0340    4.9210 F       1  UNL1       -0.2055
     16 C          -3.5810   -0.1630    3.6690 C.ar    1  UNL1       -0.0258
     17 C          -2.2500   -0.2570    3.2540 C.ar    1  UNL1       -0.0498
     18 N           0.9240   -1.8600    4.1450 N.ar    1  UNL1       -0.2351
     19 C           2.0350   -1.8490    3.4490 C.ar    1  UNL1        0.0974
     20 N           1.8130   -1.4850    2.1490 N.ar    1  UNL1       -0.3240
     21 C           2.8530   -1.4120    1.1300 C.3     1  UNL1        0.0498
     22 C           2.6750   -2.4540    0.0510 C.ar    1  UNL1       -0.0270
     23 C           2.7670   -3.8230    0.3460 C.ar    1  UNL1       -0.0568
     24 C           2.5860   -4.7780   -0.6550 C.ar    1  UNL1       -0.0607
     25 C           2.2980   -4.3780   -1.9600 C.ar    1  UNL1       -0.0496
     26 C           2.1900   -3.0180   -2.2710 C.ar    1  UNL1        0.0368
     27 C           1.8580   -2.6360   -3.6700 C.2     1  UNL1        0.2415
     28 N           1.2620   -1.4220   -3.8680 N.am    1  UNL1       -0.3253
     29 O           2.0720   -3.3930   -4.6080 O.2     1  UNL1       -0.2704
     30 C           2.4050   -2.0610   -1.2720 C.ar    1  UNL1       -0.0448
     31 N           0.3090    0.2210    0.1520 N.ar    1  UNL1       -0.2129
     32 C           0.2890    4.0540   -1.7400 C.ar    1  UNL1       -0.0275
     33 C           0.8830    4.3100   -2.9880 C.ar    1  UNL1       -0.0568
     34 C           0.5600    5.4600   -3.7100 C.ar    1  UNL1       -0.0614
     35 C          -0.3630    6.3690   -3.1980 C.ar    1  UNL1       -0.0617
     36 C          -0.9650    6.1280   -1.9650 C.ar    1  UNL1       -0.0614
     37 C          -0.6440    4.9780   -1.2400 C.ar    1  UNL1       -0.0568
     38 H           2.3960    3.6950   -0.0470 H       1  UNL1        0.0251
     39 H           2.3410    1.9350    0.0880 H       1  UNL1        0.0251
     40 H           2.7510    2.6790   -1.4530 H       1  UNL1        0.0251
     41 H           0.0320    2.8240   -0.0150 H       1  UNL1        0.0545
     42 H          -0.4340    1.8230   -2.4490 H       1  UNL1        0.1495
     43 H          -2.3360   -1.8530   -1.5920 H       1  UNL1        0.0831
     44 H          -1.5080   -2.5880    0.6580 H       1  UNL1        0.0655
     45 H          -1.3690   -3.0910    4.9300 H       1  UNL1        0.0625
     46 H          -3.7400   -2.9130    5.6570 H       1  UNL1        0.0646
     47 H          -4.2080    0.6590    3.3390 H       1  UNL1        0.0646
     48 H          -1.8450    0.5190    2.6080 H       1  UNL1        0.0625
     49 H           3.0160   -2.1030    3.8310 H       1  UNL1        0.1029
     50 H           3.8250   -1.5570    1.6180 H       1  UNL1        0.0542
     51 H           2.8480   -0.3940    0.7300 H       1  UNL1        0.0542
     52 H           2.9810   -4.1590    1.3590 H       1  UNL1        0.0621
     53 H           2.6640   -5.8370   -0.4200 H       1  UNL1        0.0618
     54 H           2.1520   -5.1280   -2.7350 H       1  UNL1        0.0625
     55 H           0.9190   -1.2450   -4.8030 H       1  UNL1        0.1453
     56 H           0.7970   -0.9190   -3.1200 H       1  UNL1        0.1453
     57 H           2.3650   -1.0020   -1.5170 H       1  UNL1        0.0628
     58 H           1.6010    3.6070   -3.4070 H       1  UNL1        0.0621
     59 H           1.0280    5.6450   -4.6730 H       1  UNL1        0.0618
     60 H          -0.6140    7.2640   -3.7600 H       1  UNL1        0.0618
     61 H          -1.6870    6.8360   -1.5660 H       1  UNL1        0.0618
     62 H          -1.1280    4.8100   -0.2810 H       1  UNL1        0.0621
@<TRIPOS>BOND
     1     1     2    1
     2     1    38    1
     3     1    39    1
     4     1    40    1
     5     2     3    1
     6     2    32    1
     7     2    41    1
     8     3     4    1
     9     3    42    1
    10     4     5   ar
    11     4    31   ar
    12     5     6   ar
    13     6     7   ar
    14     6    43    1
    15     7     8   ar
    16     7    44    1
    17     8     9    1
    18     8    31   ar
    19     9    10   ar
    20     9    20   ar
    21    10    11    1
    22    10    18   ar
    23    11    12   ar
    24    11    17   ar
    25    12    13   ar
    26    12    45    1
    27    13    14   ar
    28    13    46    1
    29    14    15    1
    30    14    16   ar
    31    16    17   ar
    32    16    47    1
    33    17    48    1
    34    18    19   ar
    35    19    20   ar
    36    19    49    1
    37    20    21    1
    38    21    22    1
    39    21    50    1
    40    21    51    1
    41    22    23   ar
    42    22    30   ar
    43    23    24   ar
    44    23    52    1
    45    24    25   ar
    46    24    53    1
    47    25    26   ar
    48    25    54    1
    49    26    27    1
    50    26    30   ar
    51    27    28   am
    52    27    29    2
    53    28    55    1
    54    28    56    1
    55    30    57    1
    56    32    33   ar
    57    32    37   ar
    58    33    34   ar
    59    33    58    1
    60    34    35   ar
    61    34    59    1
    62    35    36   ar
    63    35    60    1
    64    36    37   ar
    65    36    61    1
    66    37    62    1
@<TRIPOS>MOLECULE
AD3CC00608457-I00-C00
 48 51 0 0 0
SMALL
GASTEIGER

@<TRIPOS>ATOM
      1 C           3.7820    1.7040   -1.2970 C.3     1  UNL1        0.0819
      2 O           2.4490    1.4630   -1.7280 O.3     1  UNL1       -0.4657
      3 C           1.7000    0.7780   -0.7990 C.ar    1  UNL1        0.3182
      4 N           2.1320    0.6890    0.4710 N.ar    1  UNL1       -0.2033
      5 C           1.3260    0.0300    1.3240 C.ar    1  UNL1        0.0350
      6 C           0.1070   -0.4880    0.9650 C.ar    1  UNL1       -0.0158
      7 C          -0.2560   -0.2890   -0.3490 C.ar    1  UNL1        0.0962
      8 C          -1.5500   -0.7130   -0.8580 C.ar    1  UNL1        0.0954
      9 C          -2.1820   -1.9500   -0.8760 C.ar    1  UNL1        0.0982
     10 C          -1.6350   -3.2190   -0.4250 C.ar    1  UNL1        0.0027
     11 C          -0.3180   -3.6010   -0.7250 C.ar    1  UNL1       -0.0498
     12 C           0.1800   -4.8260   -0.2760 C.ar    1  UNL1       -0.0258
     13 C          -0.6400   -5.6720    0.4610 C.ar    1  UNL1        0.1234
     14 F          -0.1590   -6.8460    0.8910 F       1  UNL1       -0.2055
     15 C          -1.9520   -5.3210    0.7530 C.ar    1  UNL1       -0.0258
     16 C          -2.4510   -4.0960    0.3050 C.ar    1  UNL1       -0.0498
     17 N          -3.4650   -1.8460   -1.3630 N.ar    1  UNL1       -0.2351
     18 C          -3.6110   -0.5840   -1.6890 C.ar    1  UNL1        0.0974
     19 N          -2.4920    0.1460   -1.3960 N.ar    1  UNL1       -0.3240
     20 C          -2.3740    1.5830   -1.6080 C.3     1  UNL1        0.0498
     21 C          -2.3440    2.3460   -0.3030 C.ar    1  UNL1       -0.0270
     22 C          -3.4710    2.3870    0.5330 C.ar    1  UNL1       -0.0568
     23 C          -3.4330    3.0810    1.7430 C.ar    1  UNL1       -0.0607
     24 C          -2.2640    3.7310    2.1400 C.ar    1  UNL1       -0.0496
     25 C          -1.1270    3.6900    1.3270 C.ar    1  UNL1        0.0368
     26 C           0.1060    4.3720    1.7990 C.2     1  UNL1        0.2415
     27 N           1.3030    3.8970    1.3380 N.am    1  UNL1       -0.3253
     28 O           0.0620    5.2950    2.6020 O.2     1  UNL1       -0.2704
     29 C          -1.1790    3.0220    0.0970 C.ar    1  UNL1       -0.0448
     30 N           0.5190    0.3440   -1.2480 N.ar    1  UNL1       -0.1934
     31 H           4.2950    0.7700   -1.0370 H       1  UNL1        0.0661
     32 H           4.3260    2.1600   -2.1300 H       1  UNL1        0.0661
     33 H           3.8060    2.4100   -0.4600 H       1  UNL1        0.0661
     34 H           1.6960   -0.0630    2.3420 H       1  UNL1        0.0832
     35 H          -0.5320   -0.9960    1.6760 H       1  UNL1        0.0655
     36 H           0.3230   -2.9610   -1.3270 H       1  UNL1        0.0625
     37 H           1.1970   -5.1290   -0.5070 H       1  UNL1        0.0646
     38 H          -2.5800   -6.0010    1.3190 H       1  UNL1        0.0646
     39 H          -3.4830   -3.8250    0.5220 H       1  UNL1        0.0625
     40 H          -4.5010   -0.1500   -2.1260 H       1  UNL1        0.1029
     41 H          -1.4790    1.7580   -2.2130 H       1  UNL1        0.0542
     42 H          -3.2300    1.9150   -2.2060 H       1  UNL1        0.0542
     43 H          -4.3900    1.8780    0.2490 H       1  UNL1        0.0621
     44 H          -4.3130    3.1120    2.3820 H       1  UNL1        0.0618
     45 H          -2.2390    4.2670    3.0880 H       1  UNL1        0.0625
     46 H           2.1260    4.2840    1.7820 H       1  UNL1        0.1453
     47 H           1.3970    2.9670    0.9480 H       1  UNL1        0.1453
     48 H          -0.3120    3.0280   -0.5600 H       1  UNL1        0.0628
@<TRIPOS>BOND
     1     1     2    1
     2     1    31    1
     3     1    32    1
     4     1    33    1
     5     2     3    1
     6     3     4   ar
     7     3    30   ar
     8     4     5   ar
     9     5     6   ar
    10     5    34    1
    11     6     7   ar
    12     6    35    1
    13     7     8    1
    14     7    30   ar
    15     8     9   ar
    16     8    19   ar
    17     9    10    1
    18     9    17   ar
    19    10    11   ar
    20    10    16   ar
    21    11    12   ar
    22    11    36    1
    23    12    13   ar
    24    12    37    1
    25    13    14    1
    26    13    15   ar
    27    15    16   ar
    28    15    38    1
    29    16    39    1
    30    17    18   ar
    31    18    19   ar
    32    18    40    1
    33    19    20    1
    34    20    21    1
    35    20    41    1
    36    20    42    1
    37    21    22   ar
    38    21    29   ar
    39    22    23   ar
    40    22    43    1
    41    23    24   ar
    42    23    44    1
    43    24    25   ar
    44    24    45    1
    45    25    26    1
    46    25    29   ar
    47    26    27   am
    48    26    28    2
    49    27    46    1
    50    27    47    1
    51    29    48    1
@<TRIPOS>MOLECULE
AD3CC00608500-I00-C00
 48 51 0 0 0
SMALL
GASTEIGER

@<TRIPOS>ATOM
      1 C           1.8430   -4.3950    2.6830 C.3     1  UNL1        0.0819
      2 O           1.9810   -2.9850    2.8020 O.3     1  UNL1       -0.4657
      3 C           1.7990   -2.3260    1.6050 C.ar    1  UNL1        0.3182
      4 N           1.3610   -3.0000    0.5290 N.ar    1  UNL1       -0.2033
      5 C           1.1770   -2.2730   -0.5870 C.ar    1  UNL1        0.0350
      6 C           1.4120   -0.9220   -0.6570 C.ar    1  UNL1       -0.0158
      7 C           1.8550   -0.3350    0.5080 C.ar    1  UNL1        0.0962
      8 C           2.1440    1.0900    0.5860 C.ar    1  UNL1        0.0954
      9 C           2.9360    1.9210   -0.1980 C.ar    1  UNL1        0.0982
     10 C           3.7800    1.5300   -1.3150 C.ar    1  UNL1        0.0027
     11 C           4.6070    0.3980   -1.2490 C.ar    1  UNL1       -0.0498
     12 C           5.4070    0.0470   -2.3390 C.ar    1  UNL1       -0.0258
     13 C           5.3880    0.8320   -3.4860 C.ar    1  UNL1        0.1234
     14 F           6.1550    0.4920   -4.5300 F       1  UNL1       -0.2055
     15 C           4.5900    1.9660   -3.5640 C.ar    1  UNL1       -0.0258
     16 C           3.7890    2.3190   -2.4750 C.ar    1  UNL1       -0.0498
     17 N           2.8200    3.2350    0.1950 N.ar    1  UNL1       -0.2351
     18 C           2.0200    3.2160    1.2320 C.ar    1  UNL1        0.0974
     19 N           1.5770    1.9510    1.5070 N.ar    1  UNL1       -0.3240
     20 C           0.6540    1.6280    2.5870 C.3     1  UNL1        0.0498
     21 C          -0.7000    1.1900    2.0780 C.ar    1  UNL1       -0.0277
     22 C          -1.2040   -0.0750    2.4190 C.ar    1  UNL1       -0.0562
     23 C          -2.4490   -0.5010    1.9470 C.ar    1  UNL1       -0.0493
     24 C          -3.2180    0.3430    1.1390 C.ar    1  UNL1        0.0365
     25 C          -4.5440   -0.0650    0.6030 C.2     1  UNL1        0.2415
     26 N          -5.2220   -1.0460    1.2720 N.am    1  UNL1       -0.3253
     27 O          -5.0340    0.4750   -0.3810 O.2     1  UNL1       -0.2704
     28 C          -2.7230    1.6060    0.7960 C.ar    1  UNL1       -0.0493
     29 C          -1.4780    2.0300    1.2680 C.ar    1  UNL1       -0.0562
     30 N           2.0490   -1.0120    1.6540 N.ar    1  UNL1       -0.1934
     31 H           2.0550   -4.8330    3.6630 H       1  UNL1        0.0661
     32 H           0.8180   -4.6720    2.4120 H       1  UNL1        0.0661
     33 H           2.5650   -4.8090    1.9710 H       1  UNL1        0.0661
     34 H           0.8210   -2.8260   -1.4520 H       1  UNL1        0.0832
     35 H           1.2490   -0.3620   -1.5680 H       1  UNL1        0.0655
     36 H           4.6510   -0.2070   -0.3460 H       1  UNL1        0.0625
     37 H           6.0500   -0.8260   -2.2960 H       1  UNL1        0.0646
     38 H           4.5990    2.5730   -4.4630 H       1  UNL1        0.0646
     39 H           3.1730    3.2140   -2.5280 H       1  UNL1        0.0625
     40 H           1.7240    4.0830    1.8100 H       1  UNL1        0.1029
     41 H           1.1320    0.8660    3.2110 H       1  UNL1        0.0542
     42 H           0.5310    2.5190    3.2140 H       1  UNL1        0.0542
     43 H          -0.6150   -0.7510    3.0390 H       1  UNL1        0.0621
     44 H          -2.7850   -1.5030    2.1960 H       1  UNL1        0.0625
     45 H          -6.1720   -1.2100    0.9630 H       1  UNL1        0.1453
     46 H          -4.9950   -1.3030    2.2220 H       1  UNL1        0.1453
     47 H          -3.3090    2.2660    0.1570 H       1  UNL1        0.0625
     48 H          -1.1200    3.0180    0.9840 H       1  UNL1        0.0621
@<TRIPOS>BOND
     1     1     2    1
     2     1    31    1
     3     1    32    1
     4     1    33    1
     5     2     3    1
     6     3     4   ar
     7     3    30   ar
     8     4     5   ar
     9     5     6   ar
    10     5    34    1
    11     6     7   ar
    12     6    35    1
    13     7     8    1
    14     7    30   ar
    15     8     9   ar
    16     8    19   ar
    17     9    10    1
    18     9    17   ar
    19    10    11   ar
    20    10    16   ar
    21    11    12   ar
    22    11    36    1
    23    12    13   ar
    24    12    37    1
    25    13    14    1
    26    13    15   ar
    27    15    16   ar
    28    15    38    1
    29    16    39    1
    30    17    18   ar
    31    18    19   ar
    32    18    40    1
    33    19    20    1
    34    20    21    1
    35    20    41    1
    36    20    42    1
    37    21    22   ar
    38    21    29   ar
    39    22    23   ar
    40    22    43    1
    41    23    24   ar
    42    23    44    1
    43    24    25    1
    44    24    28   ar
    45    25    26   am
    46    25    27    2
    47    26    45    1
    48    26    46    1
    49    28    29   ar
    50    28    47    1
    51    29    48    1
@<TRIPOS>MOLECULE
AD3CC00608998-I00-C00
 45 48 0 0 0
SMALL
GASTEIGER

@<TRIPOS>ATOM
      1 F          -2.7990   -1.8070    5.1080 F       1  UNL1       -0.1839
      2 C          -1.6710   -1.9300    4.3940 C.ar    1  UNL1        0.2138
      3 C          -1.6960   -1.5620    3.0610 C.ar    1  UNL1        0.0019
      4 C          -0.5220   -1.6850    2.3200 C.ar    1  UNL1        0.0061
      5 C          -0.4870   -1.3120    0.9110 C.ar    1  UNL1        0.0748
      6 N          -1.3940   -1.8020   -0.0060 N.ar    1  UNL1       -0.3324
      7 C          -1.0570   -1.3240   -1.2330 C.ar    1  UNL1        0.1676
      8 S          -1.9950   -1.7560   -2.6100 S.3     1  UNL1       -0.0832
      9 C          -1.7590   -0.2880   -3.6560 C.3     1  UNL1        0.0262
     10 C          -2.6180    0.8750   -3.2210 C.ar    1  UNL1       -0.0371
     11 C          -3.9660    0.9520   -3.6040 C.ar    1  UNL1       -0.0578
     12 C          -4.7610    2.0210   -3.1890 C.ar    1  UNL1       -0.0615
     13 C          -4.2200    3.0230   -2.3850 C.ar    1  UNL1       -0.0617
     14 C          -2.8840    2.9550   -1.9930 C.ar    1  UNL1       -0.0615
     15 C          -2.0870    1.8870   -2.4080 C.ar    1  UNL1       -0.0578
     16 N           0.0080   -0.5680   -1.1910 N.ar    1  UNL1       -0.2214
     17 C           0.3630   -0.5240    0.1410 C.ar    1  UNL1        0.0977
     18 C           1.5030    0.2540    0.5940 C.ar    1  UNL1        0.0030
     19 C           1.4700    0.9910    1.7840 C.ar    1  UNL1       -0.0525
     20 C           2.5790    1.7390    2.1850 C.ar    1  UNL1       -0.0606
     21 C           3.7280    1.7660    1.3950 C.ar    1  UNL1       -0.0501
     22 C           3.7820    1.0440    0.1940 C.ar    1  UNL1        0.0554
     23 C           5.0070    1.0930   -0.6850 C.3     1  UNL1        0.4174
     24 F           6.1450    1.4010    0.0000 F       1  UNL1       -0.1659
     25 F           4.9020    2.0250   -1.6710 F       1  UNL1       -0.1659
     26 F           5.2620   -0.0900   -1.3100 F       1  UNL1       -0.1659
     27 C           2.6570    0.3000   -0.2010 C.ar    1  UNL1       -0.0409
     28 C           0.6210   -2.1780    2.9520 C.ar    1  UNL1       -0.0342
     29 C           0.5410   -2.5210    4.2920 C.ar    1  UNL1        0.0313
     30 N          -0.5830   -2.4080    5.0290 N.ar    1  UNL1       -0.2276
     31 H          -2.6130   -1.1730    2.6360 H       1  UNL1        0.0669
     32 H          -2.1630   -2.4290    0.1780 H       1  UNL1        0.1679
     33 H          -2.0300   -0.5620   -4.6830 H       1  UNL1        0.0429
     34 H          -0.7020   -0.0020   -3.6950 H       1  UNL1        0.0429
     35 H          -4.4040    0.1750   -4.2270 H       1  UNL1        0.0621
     36 H          -5.8030    2.0730   -3.4920 H       1  UNL1        0.0618
     37 H          -4.8390    3.8560   -2.0620 H       1  UNL1        0.0618
     38 H          -2.4600    3.7340   -1.3640 H       1  UNL1        0.0618
     39 H          -1.0470    1.8440   -2.0880 H       1  UNL1        0.0621
     40 H           0.5770    1.0080    2.4040 H       1  UNL1        0.0624
     41 H           2.5410    2.3100    3.1100 H       1  UNL1        0.0618
     42 H           4.5830    2.3600    1.7170 H       1  UNL1        0.0623
     43 H           2.6800   -0.2510   -1.1420 H       1  UNL1        0.0630
     44 H           1.5590   -2.3000    2.4190 H       1  UNL1        0.0639
     45 H           1.4070   -2.9090    4.8230 H       1  UNL1        0.0831
@<TRIPOS>BOND
     1     1     2    1
     2     2     3   ar
     3     2    30   ar
     4     3     4   ar
     5     3    31    1
     6     4     5    1
     7     4    28   ar
     8     5     6   ar
     9     5    17   ar
    10     6     7   ar
    11     6    32    1
    12     7     8    1
    13     7    16   ar
    14     8     9    1
    15     9    10    1
    16     9    33    1
    17     9    34    1
    18    10    11   ar
    19    10    15   ar
    20    11    12   ar
    21    11    35    1
    22    12    13   ar
    23    12    36    1
    24    13    14   ar
    25    13    37    1
    26    14    15   ar
    27    14    38    1
    28    15    39    1
    29    16    17   ar
    30    17    18    1
    31    18    19   ar
    32    18    27   ar
    33    19    20   ar
    34    19    40    1
    35    20    21   ar
    36    20    41    1
    37    21    22   ar
    38    21    42    1
    39    22    23    1
    40    22    27   ar
    41    23    24    1
    42    23    25    1
    43    23    26    1
    44    27    43    1
    45    28    29   ar
    46    28    44    1
    47    29    30   ar
    48    29    45    1
@<TRIPOS>MOLECULE
AD3CC00609034-I00-C00
 59 63 0 0 0
SMALL
GASTEIGER

@<TRIPOS>ATOM
      1 C          -1.2490    2.9050    3.4120 C.3     1  UNL1       -0.0424
      2 C          -1.0540    2.7120    1.9040 C.3     1  UNL1        0.0457
      3 N           0.2790    3.1800    1.5520 N.pl3   1  UNL1       -0.3069
      4 C           0.8400    2.6180    0.4160 C.ar    1  UNL1        0.2162
      5 N           1.6090    3.4390   -0.3090 N.ar    1  UNL1       -0.2229
      6 C           2.1810    2.9230   -1.4100 C.ar    1  UNL1        0.0333
      7 C           2.0160    1.6220   -1.8080 C.ar    1  UNL1       -0.0158
      8 C           1.2120    0.8480   -1.0000 C.ar    1  UNL1        0.0963
      9 C           0.9810   -0.5570   -1.3400 C.ar    1  UNL1        0.1150
     10 N           1.5430   -1.1390   -2.4640 N.ar    1  UNL1       -0.2336
     11 C           1.1390   -2.3850   -2.4570 C.ar    1  UNL1        0.0974
     12 N           0.3470   -2.6520   -1.3750 N.ar    1  UNL1       -0.3252
     13 C          -0.2480   -3.9510   -1.0980 C.3     1  UNL1        0.0497
     14 C           0.4360   -4.6660    0.0430 C.ar    1  UNL1       -0.0276
     15 C           1.7730   -5.0800   -0.0630 C.ar    1  UNL1       -0.0557
     16 C           2.3990   -5.7400    0.9990 C.ar    1  UNL1       -0.0440
     17 C           1.6950   -5.9980    2.1790 C.ar    1  UNL1        0.0518
     18 C           2.3380   -6.6740    3.2670 C.1     1  UNL1        0.0992
     19 N           2.8570   -7.2270    4.1460 N.1     1  UNL1       -0.1909
     20 C           0.3630   -5.5930    2.2910 C.ar    1  UNL1       -0.0440
     21 C          -0.2630   -4.9350    1.2290 C.ar    1  UNL1       -0.0557
     22 C           0.2010   -1.4830   -0.6510 C.ar    1  UNL1        0.0782
     23 C          -0.5930   -1.3810    0.5690 C.ar    1  UNL1        0.0008
     24 C          -1.9890   -1.2790    0.4970 C.ar    1  UNL1       -0.0498
     25 C          -2.7480   -1.1990    1.6660 C.ar    1  UNL1       -0.0258
     26 C          -2.1080   -1.2200    2.9000 C.ar    1  UNL1        0.1234
     27 F          -2.8380   -1.1420    4.0210 F       1  UNL1       -0.2055
     28 C          -0.7250   -1.3160    2.9900 C.ar    1  UNL1       -0.0258
     29 C           0.0350   -1.3950    1.8220 C.ar    1  UNL1       -0.0498
     30 N           0.6220    1.3350    0.1100 N.ar    1  UNL1       -0.2129
     31 C          -2.1050    3.4380    1.0730 C.ar    1  UNL1       -0.0275
     32 C          -2.5120    4.7520    1.3540 C.ar    1  UNL1       -0.0568
     33 C          -3.4660    5.3890    0.5570 C.ar    1  UNL1       -0.0614
     34 C          -4.0190    4.7260   -0.5370 C.ar    1  UNL1       -0.0617
     35 C          -3.6150    3.4290   -0.8400 C.ar    1  UNL1       -0.0614
     36 C          -2.6620    2.7910   -0.0440 C.ar    1  UNL1       -0.0568
     37 H          -1.0680    3.9390    3.7270 H       1  UNL1        0.0251
     38 H          -2.2630    2.6270    3.7180 H       1  UNL1        0.0251
     39 H          -0.5440    2.2760    3.9690 H       1  UNL1        0.0251
     40 H          -1.1600    1.6330    1.7410 H       1  UNL1        0.0545
     41 H           0.3550    4.1830    1.4270 H       1  UNL1        0.1495
     42 H           2.7980    3.6100   -1.9800 H       1  UNL1        0.0831
     43 H           2.4910    1.2330   -2.6980 H       1  UNL1        0.0655
     44 H           1.3930   -3.1300   -3.2000 H       1  UNL1        0.1029
     45 H          -1.3140   -3.7920   -0.9020 H       1  UNL1        0.0542
     46 H          -0.1820   -4.5620   -2.0070 H       1  UNL1        0.0542
     47 H           2.3440   -4.8870   -0.9700 H       1  UNL1        0.0621
     48 H           3.4380   -6.0480    0.8980 H       1  UNL1        0.0630
     49 H          -0.1970   -5.7830    3.2060 H       1  UNL1        0.0630
     50 H          -1.3000   -4.6220    1.3440 H       1  UNL1        0.0621
     51 H          -2.4880   -1.2470   -0.4690 H       1  UNL1        0.0625
     52 H          -3.8290   -1.1110    1.6220 H       1  UNL1        0.0646
     53 H          -0.2450   -1.3180    3.9630 H       1  UNL1        0.0646
     54 H           1.1190   -1.4560    1.8900 H       1  UNL1        0.0625
     55 H          -2.0860    5.2990    2.1910 H       1  UNL1        0.0621
     56 H          -3.7730    6.4060    0.7870 H       1  UNL1        0.0618
     57 H          -4.7580    5.2250   -1.1590 H       1  UNL1        0.0618
     58 H          -4.0330    2.9150   -1.7010 H       1  UNL1        0.0618
     59 H          -2.3420    1.7840   -0.3050 H       1  UNL1        0.0621
@<TRIPOS>BOND
     1     1     2    1
     2     1    37    1
     3     1    38    1
     4     1    39    1
     5     2     3    1
     6     2    31    1
     7     2    40    1
     8     3     4    1
     9     3    41    1
    10     4     5   ar
    11     4    30   ar
    12     5     6   ar
    13     6     7   ar
    14     6    42    1
    15     7     8   ar
    16     7    43    1
    17     8     9    1
    18     8    30   ar
    19     9    10   ar
    20     9    22   ar
    21    10    11   ar
    22    11    12   ar
    23    11    44    1
    24    12    13    1
    25    12    22   ar
    26    13    14    1
    27    13    45    1
    28    13    46    1
    29    14    15   ar
    30    14    21   ar
    31    15    16   ar
    32    15    47    1
    33    16    17   ar
    34    16    48    1
    35    17    18    1
    36    17    20   ar
    37    18    19    3
    38    20    21   ar
    39    20    49    1
    40    21    50    1
    41    22    23    1
    42    23    24   ar
    43    23    29   ar
    44    24    25   ar
    45    24    51    1
    46    25    26   ar
    47    25    52    1
    48    26    27    1
    49    26    28   ar
    50    28    29   ar
    51    28    53    1
    52    29    54    1
    53    31    32   ar
    54    31    36   ar
    55    32    33   ar
    56    32    55    1
    57    33    34   ar
    58    33    56    1
    59    34    35   ar
    60    34    57    1
    61    35    36   ar
    62    35    58    1
    63    36    59    1
@<TRIPOS>MOLECULE
AD3CC00609147-I00-C00
 50 54 0 0 0
SMALL
GASTEIGER

@<TRIPOS>ATOM
      1 O           4.0720    2.6830   -2.4460 O.2     1  UNL1       -0.2702
      2 C           3.2230    3.1420   -3.2020 C.2     1  UNL1        0.2443
      3 N           3.4240    4.2370   -4.0220 N.am    1  UNL1       -0.3085
      4 C           4.6660    4.9430   -4.0450 C.3     1  UNL1        0.0235
      5 C           4.9470    5.9640   -5.1140 C.3     1  UNL1       -0.0328
      6 C           5.6820    4.6560   -5.1160 C.3     1  UNL1       -0.0328
      7 C           1.8650    2.5350   -3.2450 C.ar    1  UNL1        0.0373
      8 C           1.0890    2.5390   -4.4090 C.ar    1  UNL1       -0.0496
      9 C          -0.1740    1.9490   -4.4000 C.ar    1  UNL1       -0.0605
     10 C          -0.6590    1.3480   -3.2350 C.ar    1  UNL1       -0.0540
     11 C           0.1080    1.3160   -2.0580 C.ar    1  UNL1       -0.0171
     12 C          -0.4000    0.6680   -0.8360 C.ar    1  UNL1       -0.0172
     13 C          -1.6660    0.9780   -0.3240 C.ar    1  UNL1       -0.0533
     14 C          -2.1460    0.3590    0.8360 C.ar    1  UNL1       -0.0501
     15 C          -1.3800   -0.6040    1.5320 C.ar    1  UNL1        0.0253
     16 C          -1.8080   -1.2680    2.7070 C.ar    1  UNL1        0.1517
     17 N          -3.1140   -1.0220    3.2170 N.pl3   1  UNL1       -0.3089
     18 C          -4.0830   -1.9280    2.5530 C.3     1  UNL1        0.0371
     19 C          -5.4930   -1.6440    3.0990 C.3     1  UNL1        0.0634
     20 O          -5.5520   -1.8010    4.5270 O.3     1  UNL1       -0.3767
     21 C          -4.6070   -0.9240    5.1670 C.3     1  UNL1        0.0634
     22 C          -3.1740   -1.2030    4.6880 C.3     1  UNL1        0.0371
     23 N          -0.9920   -2.1490    3.3380 N.ar    1  UNL1       -0.1336
     24 N           0.2490   -2.4350    2.8500 N.ar    1  UNL1       -0.1553
     25 C           0.6680   -1.8260    1.7260 C.ar    1  UNL1        0.0578
     26 C          -0.1010   -0.9040    1.0300 C.ar    1  UNL1        0.0058
     27 C           0.3720   -0.2770   -0.1410 C.ar    1  UNL1       -0.0447
     28 C           1.3780    1.9170   -2.0840 C.ar    1  UNL1       -0.0419
     29 H           2.6280    4.6670   -4.4730 H       1  UNL1        0.1493
     30 H           5.0530    5.1580   -3.0510 H       1  UNL1        0.0498
     31 H           5.4980    6.8530   -4.8280 H       1  UNL1        0.0284
     32 H           4.2110    6.1280   -5.8900 H       1  UNL1        0.0284
     33 H           6.7260    4.6520   -4.8240 H       1  UNL1        0.0284
     34 H           5.4330    3.9260   -5.8760 H       1  UNL1        0.0284
     35 H           1.4640    2.9660   -5.3350 H       1  UNL1        0.0625
     36 H          -0.7780    1.9400   -5.3040 H       1  UNL1        0.0618
     37 H          -1.6410    0.8790   -3.2590 H       1  UNL1        0.0624
     38 H          -2.2910    1.7220   -0.8150 H       1  UNL1        0.0624
     39 H          -3.1270    0.6430    1.2110 H       1  UNL1        0.0625
     40 H          -4.0880   -1.7780    1.4670 H       1  UNL1        0.0487
     41 H          -3.8210   -2.9750    2.7570 H       1  UNL1        0.0487
     42 H          -6.2100   -2.3450    2.6600 H       1  UNL1        0.0575
     43 H          -5.8170   -0.6280    2.8420 H       1  UNL1        0.0575
     44 H          -4.8970    0.1150    4.9680 H       1  UNL1        0.0575
     45 H          -4.6790   -1.0930    6.2460 H       1  UNL1        0.0575
     46 H          -2.9100   -2.2320    4.9670 H       1  UNL1        0.0487
     47 H          -2.4840   -0.5100    5.1850 H       1  UNL1        0.0487
     48 H           1.6650   -2.1080    1.4040 H       1  UNL1        0.0854
     49 H           1.3610   -0.5350   -0.5210 H       1  UNL1        0.0630
     50 H           1.9970    1.9190   -1.1870 H       1  UNL1        0.0631
@<TRIPOS>BOND
     1     1     2    2
     2     2     3   am
     3     2     7    1
     4     3     4    1
     5     3    29    1
     6     4     5    1
     7     4     6    1
     8     4    30    1
     9     5     6    1
    10     5    31    1
    11     5    32    1
    12     6    33    1
    13     6    34    1
    14     7     8   ar
    15     7    28   ar
    16     8     9   ar
    17     8    35    1
    18     9    10   ar
    19     9    36    1
    20    10    11   ar
    21    10    37    1
    22    11    12    1
    23    11    28   ar
    24    12    13   ar
    25    12    27   ar
    26    13    14   ar
    27    13    38    1
    28    14    15   ar
    29    14    39    1
    30    15    16   ar
    31    15    26   ar
    32    16    17    1
    33    16    23   ar
    34    17    18    1
    35    17    22    1
    36    18    19    1
    37    18    40    1
    38    18    41    1
    39    19    20    1
    40    19    42    1
    41    19    43    1
    42    20    21    1
    43    21    22    1
    44    21    44    1
    45    21    45    1
    46    22    46    1
    47    22    47    1
    48    23    24   ar
    49    24    25   ar
    50    25    26   ar
    51    25    48    1
    52    26    27   ar
    53    27    49    1
    54    28    50    1
@<TRIPOS>MOLECULE
AD3CC00610536-I00-C00
 67 71 0 0 0
SMALL
GASTEIGER

@<TRIPOS>ATOM
      1 C           0.5630   -0.6290    3.2130 C.3     1  UNL1       -0.0376
      2 C           0.2190   -0.8590    1.7720 C.ar    1  UNL1       -0.0227
      3 C           1.0070   -1.7360    0.9950 C.ar    1  UNL1       -0.0532
      4 C           0.7540   -2.0020   -0.3690 C.ar    1  UNL1       -0.0419
      5 C           1.6810   -2.9800   -1.0960 C.3     1  UNL1       -0.0135
      6 C           3.1420   -2.4930   -1.1260 C.3     1  UNL1       -0.0333
      7 C           3.3910   -1.4590   -2.2240 C.3     1  UNL1       -0.0006
      8 N           3.0650   -2.0180   -3.5460 N.3     1  UNL1       -0.3022
      9 C           3.3740   -1.0730   -4.6370 C.3     1  UNL1        0.0012
     10 C           4.8810   -0.8800   -4.8440 C.3     1  UNL1       -0.0118
     11 C           5.1560   -0.0720   -6.1000 C.3     1  UNL1        0.0913
     12 F           4.5920    1.1590   -5.9720 F       1  UNL1       -0.2490
     13 C           1.6410   -2.3880   -3.5970 C.3     1  UNL1       -0.0006
     14 C           1.2770   -3.4130   -2.5180 C.3     1  UNL1       -0.0333
     15 C          -0.3550   -1.3930   -0.9790 C.ar    1  UNL1       -0.0328
     16 C          -1.1290   -0.5260   -0.2010 C.ar    1  UNL1        0.0670
     17 N          -2.2470    0.2120   -0.4910 N.ar    1  UNL1       -0.3377
     18 C          -2.6280    0.9090    0.6350 C.ar    1  UNL1        0.1463
     19 C          -3.7770    1.7590    0.6010 C.ar    1  UNL1        0.1022
     20 C          -4.1110    2.5080    1.6860 C.ar    1  UNL1        0.0446
     21 N          -3.3610    2.5790    2.8670 N.pl3   1  UNL1       -0.3414
     22 C          -3.9130    2.2820    4.1960 C.3     1  UNL1        0.0287
     23 C          -4.1090    0.7810    4.3970 C.3     1  UNL1        0.0570
     24 N          -4.7490    0.4940    5.6660 N.ar    1  UNL1       -0.2685
     25 C          -6.0410    0.0920    5.8580 C.ar    1  UNL1        0.0439
     26 C          -6.1930   -0.0460    7.2150 C.ar    1  UNL1        0.0783
     27 CL         -7.5720   -0.5180    8.0720 Cl      1  UNL1       -0.0804
     28 C          -4.9410    0.2920    7.7580 C.ar    1  UNL1        0.0677
     29 N          -4.0540    0.6280    6.8140 N.ar    1  UNL1       -0.1781
     30 C          -5.2960    3.3540    1.6270 C.ar    1  UNL1       -0.0239
     31 C          -6.0800    3.3820    0.5460 C.ar    1  UNL1        0.0067
     32 N          -5.7750    2.6160   -0.5410 N.ar    1  UNL1       -0.3284
     33 C          -4.6670    1.8080   -0.6150 C.ar    1  UNL1        0.2612
     34 O          -4.4280    1.1580   -1.6330 O.2     1  UNL1       -0.2671
     35 N          -1.7990    0.6370    1.6320 N.ar    1  UNL1       -0.2272
     36 C          -0.8700   -0.2470    1.1320 C.ar    1  UNL1        0.0924
     37 H           1.5750   -0.2190    3.2980 H       1  UNL1        0.0278
     38 H          -0.1290    0.0790    3.6800 H       1  UNL1        0.0278
     39 H           0.5100   -1.5710    3.7680 H       1  UNL1        0.0278
     40 H           1.8460   -2.2330    1.4850 H       1  UNL1        0.0624
     41 H           1.6510   -3.8930   -0.4830 H       1  UNL1        0.0350
     42 H           3.4580   -2.0780   -0.1630 H       1  UNL1        0.0283
     43 H           3.7930   -3.3590   -1.3080 H       1  UNL1        0.0283
     44 H           4.4510   -1.1910   -2.1740 H       1  UNL1        0.0427
     45 H           2.8160   -0.5450   -2.0260 H       1  UNL1        0.0427
     46 H           2.9630   -1.4720   -5.5740 H       1  UNL1        0.0427
     47 H           2.8860   -0.1050   -4.4650 H       1  UNL1        0.0427
     48 H           5.3140   -0.3480   -3.9910 H       1  UNL1        0.0302
     49 H           5.3800   -1.8530   -4.9260 H       1  UNL1        0.0302
     50 H           6.2320    0.0660   -6.2460 H       1  UNL1        0.0615
     51 H           4.7390   -0.5490   -6.9910 H       1  UNL1        0.0615
     52 H           1.0120   -1.4950   -3.5130 H       1  UNL1        0.0427
     53 H           1.4160   -2.8410   -4.5710 H       1  UNL1        0.0427
     54 H           0.2090   -3.6540   -2.5730 H       1  UNL1        0.0283
     55 H           1.8060   -4.3480   -2.7520 H       1  UNL1        0.0283
     56 H          -0.6300   -1.5760   -2.0100 H       1  UNL1        0.0642
     57 H          -2.7340    0.2430   -1.3800 H       1  UNL1        0.1674
     58 H          -2.4780    2.0560    2.7390 H       1  UNL1        0.1461
     59 H          -4.8550    2.8210    4.3530 H       1  UNL1        0.0479
     60 H          -3.2120    2.6690    4.9450 H       1  UNL1        0.0479
     61 H          -4.7360    0.3530    3.6060 H       1  UNL1        0.0524
     62 H          -3.1520    0.2480    4.3820 H       1  UNL1        0.0524
     63 H          -6.7260   -0.0580    5.0350 H       1  UNL1        0.0841
     64 H          -4.6380    0.3100    8.7960 H       1  UNL1        0.0863
     65 H          -5.5180    3.9960    2.4740 H       1  UNL1        0.0651
     66 H          -6.9620    4.0110    0.4780 H       1  UNL1        0.0808
     67 H          -6.3600    2.6460   -1.3670 H       1  UNL1        0.1683
@<TRIPOS>BOND
     1     1     2    1
     2     1    37    1
     3     1    38    1
     4     1    39    1
     5     2     3   ar
     6     2    36   ar
     7     3     4   ar
     8     3    40    1
     9     4     5    1
    10     4    15   ar
    11     5     6    1
    12     5    14    1
    13     5    41    1
    14     6     7    1
    15     6    42    1
    16     6    43    1
    17     7     8    1
    18     7    44    1
    19     7    45    1
    20     8     9    1
    21     8    13    1
    22     9    10    1
    23     9    46    1
    24     9    47    1
    25    10    11    1
    26    10    48    1
    27    10    49    1
    28    11    12    1
    29    11    50    1
    30    11    51    1
    31    13    14    1
    32    13    52    1
    33    13    53    1
    34    14    54    1
    35    14    55    1
    36    15    16   ar
    37    15    56    1
    38    16    17   ar
    39    16    36   ar
    40    17    18   ar
    41    17    57    1
    42    18    19    1
    43    18    35   ar
    44    19    20   ar
    45    19    33   ar
    46    20    21    1
    47    20    30   ar
    48    21    22    1
    49    21    58    1
    50    22    23    1
    51    22    59    1
    52    22    60    1
    53    23    24    1
    54    23    61    1
    55    23    62    1
    56    24    25   ar
    57    24    29   ar
    58    25    26   ar
    59    25    63    1
    60    26    27    1
    61    26    28   ar
    62    28    29   ar
    63    28    64    1
    64    30    31   ar
    65    30    65    1
    66    31    32   ar
    67    31    66    1
    68    32    33   ar
    69    32    67    1
    70    33    34    2
    71    35    36   ar
@<TRIPOS>MOLECULE
AD3CC00610551-I01-C00
 40 42 0 0 0
SMALL
GASTEIGER

@<TRIPOS>ATOM
      1 O           0.8390   -5.3910    0.1960 O.3     1  UNL1       -0.3924
      2 C           0.7620   -5.0550    1.5810 C.3     1  UNL1        0.0709
      3 C           0.9620   -3.5450    1.7630 C.3     1  UNL1        0.0876
      4 O          -0.0680   -2.9120    0.9880 O.3     1  UNL1       -0.3887
      5 C           2.3560   -3.1140    1.2740 C.3     1  UNL1        0.0293
      6 S           3.0150   -1.6570    2.1650 S.3     1  UNL1       -0.0852
      7 C           2.0990   -0.3710    1.4900 C.ar    1  UNL1        0.1674
      8 N           0.9580   -0.4500    0.8580 N.ar    1  UNL1       -0.2214
      9 C           0.6390    0.8540    0.5300 C.ar    1  UNL1        0.0976
     10 C          -0.5830    1.1760   -0.1900 C.ar    1  UNL1        0.0026
     11 C          -1.0450    0.2940   -1.1800 C.ar    1  UNL1       -0.0498
     12 C          -2.2190    0.5690   -1.8850 C.ar    1  UNL1       -0.0258
     13 C          -2.9370    1.7220   -1.5950 C.ar    1  UNL1        0.1234
     14 F          -4.0620    1.9870   -2.2710 F       1  UNL1       -0.2055
     15 C          -2.5070    2.6010   -0.6090 C.ar    1  UNL1       -0.0258
     16 C          -1.3340    2.3260    0.0990 C.ar    1  UNL1       -0.0498
     17 C           1.6270    1.7320    0.9640 C.ar    1  UNL1        0.0748
     18 C           1.8450    3.1660    0.8170 C.ar    1  UNL1        0.0033
     19 C           1.7860    3.7670   -0.4410 C.ar    1  UNL1       -0.0344
     20 C           2.0030    5.1320   -0.5320 C.ar    1  UNL1        0.0282
     21 N           2.2720    5.9200    0.5300 N.ar    1  UNL1       -0.2632
     22 C           2.3240    5.3180    1.7370 C.ar    1  UNL1        0.0282
     23 C           2.1230    3.9610    1.9300 C.ar    1  UNL1       -0.0344
     24 N           2.5370    0.9120    1.5970 N.ar    1  UNL1       -0.3324
     25 H           0.2250   -4.7650   -0.2400 H       1  UNL1        0.2095
     26 H          -0.2300   -5.3560    1.9340 H       1  UNL1        0.0583
     27 H           1.5160   -5.6310    2.1250 H       1  UNL1        0.0583
     28 H           0.8040   -3.2960    2.8190 H       1  UNL1        0.0624
     29 H           0.1350   -1.9480    0.9800 H       1  UNL1        0.2099
     30 H           2.3580   -2.9070    0.1990 H       1  UNL1        0.0407
     31 H           3.0810   -3.9120    1.4650 H       1  UNL1        0.0407
     32 H          -0.4900   -0.6160   -1.4050 H       1  UNL1        0.0625
     33 H          -2.5770   -0.1110   -2.6520 H       1  UNL1        0.0646
     34 H          -3.0900    3.4900   -0.3900 H       1  UNL1        0.0646
     35 H          -1.0250    3.0120    0.8830 H       1  UNL1        0.0625
     36 H           1.5780    3.1920   -1.3380 H       1  UNL1        0.0639
     37 H           1.9660    5.6420   -1.4900 H       1  UNL1        0.0830
     38 H           2.5350    5.9790    2.5730 H       1  UNL1        0.0830
     39 H           2.1650    3.5490    2.9320 H       1  UNL1        0.0639
     40 H           3.4080    1.1940    2.0220 H       1  UNL1        0.1679
@<TRIPOS>BOND
     1     1     2    1
     2     1    25    1
     3     2     3    1
     4     2    26    1
     5     2    27    1
     6     3     4    1
     7     3     5    1
     8     3    28    1
     9     4    29    1
    10     5     6    1
    11     5    30    1
    12     5    31    1
    13     6     7    1
    14     7     8   ar
    15     7    24   ar
    16     8     9   ar
    17     9    10    1
    18     9    17   ar
    19    10    11   ar
    20    10    16   ar
    21    11    12   ar
    22    11    32    1
    23    12    13   ar
    24    12    33    1
    25    13    14    1
    26    13    15   ar
    27    15    16   ar
    28    15    34    1
    29    16    35    1
    30    17    18    1
    31    17    24   ar
    32    18    19   ar
    33    18    23   ar
    34    19    20   ar
    35    19    36    1
    36    20    21   ar
    37    20    37    1
    38    21    22   ar
    39    22    23   ar
    40    22    38    1
    41    23    39    1
    42    24    40    1
@<TRIPOS>MOLECULE
AD3CC00610610-I00-C00
 38 40 0 0 0
SMALL
GASTEIGER

@<TRIPOS>ATOM
      1 C           1.0220   -5.0990   -0.1900 C.3     1  UNL1        0.0817
      2 O           0.3930   -4.5910    0.9860 O.3     1  UNL1       -0.4673
      3 C          -0.8520   -4.0680    0.7680 C.2     1  UNL1        0.3172
      4 O          -1.4330   -4.0920   -0.3110 O.2     1  UNL1       -0.2499
      5 C          -1.4090   -3.5390    2.0740 C.3     1  UNL1        0.0984
      6 S          -2.7190   -2.3060    1.8080 S.3     1  UNL1       -0.0766
      7 C          -1.8010   -1.0690    1.0380 C.ar    1  UNL1        0.1678
      8 N          -0.5050   -0.9060    1.0760 N.ar    1  UNL1       -0.2214
      9 C          -0.2630    0.1970    0.2820 C.ar    1  UNL1        0.0976
     10 C           1.0870    0.6880    0.0570 C.ar    1  UNL1        0.0026
     11 C           1.5030    1.1680   -1.1950 C.ar    1  UNL1       -0.0498
     12 C           2.8100    1.6260   -1.3770 C.ar    1  UNL1       -0.0258
     13 C           3.7040    1.5950   -0.3140 C.ar    1  UNL1        0.1234
     14 F           4.9560    2.0340   -0.4910 F       1  UNL1       -0.2055
     15 C           3.3180    1.1090    0.9290 C.ar    1  UNL1       -0.0258
     16 C           2.0120    0.6510    1.1130 C.ar    1  UNL1       -0.0498
     17 C          -1.4510    0.7240   -0.2150 C.ar    1  UNL1        0.0748
     18 C          -1.7820    1.8940   -1.0190 C.ar    1  UNL1        0.0033
     19 C          -2.5820    1.7720   -2.1570 C.ar    1  UNL1       -0.0344
     20 C          -2.8690    2.9140   -2.8860 C.ar    1  UNL1        0.0282
     21 N          -2.4250    4.1450   -2.5590 N.ar    1  UNL1       -0.2632
     22 C          -1.6540    4.2400   -1.4550 C.ar    1  UNL1        0.0282
     23 C          -1.3100    3.1580   -0.6620 C.ar    1  UNL1       -0.0344
     24 N          -2.4180   -0.1240    0.2820 N.ar    1  UNL1       -0.3324
     25 H           1.1280   -4.3110   -0.9410 H       1  UNL1        0.0661
     26 H           2.0200   -5.4510    0.0850 H       1  UNL1        0.0661
     27 H           0.4550   -5.9450   -0.5910 H       1  UNL1        0.0661
     28 H          -0.6080   -3.0890    2.6700 H       1  UNL1        0.0495
     29 H          -1.8280   -4.3820    2.6310 H       1  UNL1        0.0495
     30 H           0.8210    1.1760   -2.0420 H       1  UNL1        0.0625
     31 H           3.1350    2.0000   -2.3430 H       1  UNL1        0.0646
     32 H           4.0340    1.0840    1.7440 H       1  UNL1        0.0646
     33 H           1.7120    0.2620    2.0840 H       1  UNL1        0.0625
     34 H          -2.9620    0.8120   -2.4880 H       1  UNL1        0.0639
     35 H          -3.4810    2.8670   -3.7830 H       1  UNL1        0.0830
     36 H          -1.3080    5.2410   -1.2150 H       1  UNL1        0.0830
     37 H          -0.6890    3.3060    0.2150 H       1  UNL1        0.0639
     38 H          -3.4140   -0.0540    0.1390 H       1  UNL1        0.1679
@<TRIPOS>BOND
     1     1     2    1
     2     1    25    1
     3     1    26    1
     4     1    27    1
     5     2     3    1
     6     3     4    2
     7     3     5    1
     8     5     6    1
     9     5    28    1
    10     5    29    1
    11     6     7    1
    12     7     8   ar
    13     7    24   ar
    14     8     9   ar
    15     9    10    1
    16     9    17   ar
    17    10    11   ar
    18    10    16   ar
    19    11    12   ar
    20    11    30    1
    21    12    13   ar
    22    12    31    1
    23    13    14    1
    24    13    15   ar
    25    15    16   ar
    26    15    32    1
    27    16    33    1
    28    17    18    1
    29    17    24   ar
    30    18    19   ar
    31    18    23   ar
    32    19    20   ar
    33    19    34    1
    34    20    21   ar
    35    20    35    1
    36    21    22   ar
    37    22    23   ar
    38    22    36    1
    39    23    37    1
    40    24    38    1
@<TRIPOS>MOLECULE
AD3CC00614456-I00-C00
 28 30 0 0 0
SMALL
GASTEIGER

@<TRIPOS>ATOM
      1 F          -0.9730    4.4540    3.3120 F       1  UNL1       -0.2055
      2 C          -0.1970    3.6480    2.5760 C.ar    1  UNL1        0.1234
      3 C          -0.7370    2.9920    1.4780 C.ar    1  UNL1       -0.0258
      4 C           0.0720    2.1510    0.7090 C.ar    1  UNL1       -0.0484
      5 C           1.4230    1.9590    1.0400 C.ar    1  UNL1        0.0180
      6 C           2.2770    1.0770    0.2470 C.ar    1  UNL1        0.1424
      7 O           3.5620    1.5230    0.0860 O.2     1  UNL1       -0.4623
      8 C           4.2110    0.6310   -0.7020 C.ar    1  UNL1        0.0932
      9 C           3.3710   -0.3980   -1.0510 C.ar    1  UNL1       -0.0155
     10 C           2.1200   -0.1270   -0.4280 C.ar    1  UNL1        0.0279
     11 C           0.9110   -0.9290   -0.4610 C.ar    1  UNL1       -0.0114
     12 C           0.3800   -1.3390   -1.6840 C.ar    1  UNL1       -0.0358
     13 C          -0.7720   -2.1070   -1.6740 C.ar    1  UNL1        0.0281
     14 N          -1.4100   -2.4890   -0.5470 N.ar    1  UNL1       -0.2632
     15 C          -0.8690   -2.0900    0.6240 C.ar    1  UNL1        0.0281
     16 C           0.2780   -1.3210    0.7190 C.ar    1  UNL1       -0.0358
     17 C           1.9470    2.6410    2.1520 C.ar    1  UNL1       -0.0484
     18 C           1.1380    3.4820    2.9200 C.ar    1  UNL1       -0.0258
     19 H          -1.7810    3.1410    1.2220 H       1  UNL1        0.0646
     20 H          -0.3620    1.6590   -0.1580 H       1  UNL1        0.0625
     21 H           5.2450    0.8620   -0.9170 H       1  UNL1        0.1030
     22 H           3.6320   -1.2500   -1.6630 H       1  UNL1        0.0655
     23 H           0.8390   -1.0620   -2.6270 H       1  UNL1        0.0639
     24 H          -1.2270   -2.4450   -2.6010 H       1  UNL1        0.0830
     25 H          -1.3990   -2.4180    1.5140 H       1  UNL1        0.0830
     26 H           0.6630   -1.0420    1.6940 H       1  UNL1        0.0639
     27 H           2.9930    2.5170    2.4260 H       1  UNL1        0.0625
     28 H           1.5430    4.0080    3.7790 H       1  UNL1        0.0646
@<TRIPOS>BOND
     1     1     2    1
     2     2     3   ar
     3     2    18   ar
     4     3     4   ar
     5     3    19    1
     6     4     5   ar
     7     4    20    1
     8     5     6    1
     9     5    17   ar
    10     6     7   ar
    11     6    10   ar
    12     7     8   ar
    13     8     9   ar
    14     8    21    1
    15     9    10   ar
    16     9    22    1
    17    10    11    1
    18    11    12   ar
    19    11    16   ar
    20    12    13   ar
    21    12    23    1
    22    13    14   ar
    23    13    24    1
    24    14    15   ar
    25    15    16   ar
    26    15    25    1
    27    16    26    1
    28    17    18   ar
    29    17    27    1
    30    18    28    1
@<TRIPOS>MOLECULE
AD3CC00617964-I00-C03
 44 47 0 0 0
SMALL
GASTEIGER

@<TRIPOS>ATOM
      1 C          -1.9130    0.4010    3.8170 C.3     1  UNL1       -0.0425
      2 C          -0.6090    0.8220    3.1360 C.3     1  UNL1        0.0432
      3 N           0.0020   -0.3450    2.4910 N.pl3   1  UNL1       -0.3327
      4 C           1.2760   -0.4150    2.1530 C.2     1  UNL1        0.1042
      5 C           2.0940   -1.2140    1.3890 C.2     1  UNL1        0.1076
      6 N           2.0740   -2.2790    0.6130 N.pl3   1  UNL1       -0.3098
      7 C           0.9870   -2.9210   -0.0210 C.ar    1  UNL1        0.0350
      8 C           1.0940   -4.2830   -0.3140 C.ar    1  UNL1       -0.0224
      9 C           0.0130   -4.9350   -0.8820 C.ar    1  UNL1        0.0301
     10 N          -1.1560   -4.3330   -1.1720 N.ar    1  UNL1       -0.2518
     11 C          -1.2570   -3.0120   -0.8830 C.ar    1  UNL1        0.1077
     12 C          -2.5460   -2.4220   -1.2220 C.ar    1  UNL1        0.1529
     13 C          -3.6910   -2.9180   -1.8170 C.ar    1  UNL1       -0.0144
     14 C          -4.6200   -1.8520   -1.8730 C.ar    1  UNL1       -0.0233
     15 C          -3.9900   -0.7700   -1.3070 C.ar    1  UNL1        0.0926
     16 O          -2.7350   -1.1030   -0.9070 O.2     1  UNL1       -0.4614
     17 C          -0.2190   -2.2820   -0.3100 C.ar    1  UNL1       -0.0115
     18 C           3.2980   -0.4390    1.7760 C.2     1  UNL1        0.2500
     19 O           4.4880   -0.4700    1.5820 O.2     1  UNL1       -0.2817
     20 C           2.4170    0.4490    2.5640 C.2     1  UNL1        0.2497
     21 O           2.6360    1.4190    3.2480 O.2     1  UNL1       -0.2817
     22 C          -0.8310    1.9230    2.1130 C.ar    1  UNL1       -0.0276
     23 C          -1.6830    1.7460    1.0120 C.ar    1  UNL1       -0.0568
     24 C          -1.8580    2.7640    0.0730 C.ar    1  UNL1       -0.0614
     25 C          -1.1840    3.9740    0.2220 C.ar    1  UNL1       -0.0617
     26 C          -0.3320    4.1650    1.3070 C.ar    1  UNL1       -0.0614
     27 C          -0.1550    3.1470    2.2450 C.ar    1  UNL1       -0.0568
     28 H          -2.6280   -0.0360    3.1100 H       1  UNL1        0.0251
     29 H          -1.7170   -0.3550    4.5860 H       1  UNL1        0.0251
     30 H          -2.3980    1.2570    4.2990 H       1  UNL1        0.0251
     31 H           0.0550    1.1850    3.9320 H       1  UNL1        0.0545
     32 H          -0.6800   -0.9820    2.0820 H       1  UNL1        0.1468
     33 H           2.9630   -2.6940    0.3280 H       1  UNL1        0.1523
     34 H           1.9970   -4.8410   -0.0900 H       1  UNL1        0.0651
     35 H           0.0610   -5.9940   -1.1200 H       1  UNL1        0.0830
     36 H          -3.8240   -3.9330   -2.1660 H       1  UNL1        0.0656
     37 H          -5.6230   -1.8710   -2.2750 H       1  UNL1        0.0649
     38 H          -4.2830    0.2550   -1.1250 H       1  UNL1        0.1029
     39 H          -0.3400   -1.2200   -0.1370 H       1  UNL1        0.0658
     40 H          -2.2090    0.8060    0.8720 H       1  UNL1        0.0621
     41 H          -2.5150    2.6100   -0.7790 H       1  UNL1        0.0618
     42 H          -1.3180    4.7660   -0.5110 H       1  UNL1        0.0618
     43 H           0.2010    5.1060    1.4210 H       1  UNL1        0.0618
     44 H           0.5270    3.3120    3.0780 H       1  UNL1        0.0621
@<TRIPOS>BOND
     1     1     2    1
     2     1    28    1
     3     1    29    1
     4     1    30    1
     5     2     3    1
     6     2    22    1
     7     2    31    1
     8     3     4    1
     9     3    32    1
    10     4     5    2
    11     4    20    1
    12     5     6    1
    13     5    18    1
    14     6     7    1
    15     6    33    1
    16     7     8   ar
    17     7    17   ar
    18     8     9   ar
    19     8    34    1
    20     9    10   ar
    21     9    35    1
    22    10    11   ar
    23    11    12    1
    24    11    17   ar
    25    12    13   ar
    26    12    16   ar
    27    13    14   ar
    28    13    36    1
    29    14    15   ar
    30    14    37    1
    31    15    16   ar
    32    15    38    1
    33    17    39    1
    34    18    19    2
    35    18    20    1
    36    20    21    2
    37    22    23   ar
    38    22    27   ar
    39    23    24   ar
    40    23    40    1
    41    24    25   ar
    42    24    41    1
    43    25    26   ar
    44    25    42    1
    45    26    27   ar
    46    26    43    1
    47    27    44    1
@<TRIPOS>MOLECULE
AD3CC00624651-I00-C00
 56 59 0 0 0
SMALL
GASTEIGER

@<TRIPOS>ATOM
      1 C          -2.0700    2.9700   -1.6260 C.3     1  UNL1       -0.0391
      2 C          -2.0810    2.3130   -0.2700 C.ar    1  UNL1       -0.0427
      3 C          -3.0950    2.6500    0.6410 C.ar    1  UNL1       -0.0575
      4 C          -3.1410    2.0640    1.9060 C.ar    1  UNL1       -0.0494
      5 C          -2.1660    1.1400    2.2870 C.ar    1  UNL1        0.0373
      6 C          -2.2490    0.5390    3.6460 C.2     1  UNL1        0.2443
      7 O          -3.3320    0.4510    4.2140 O.2     1  UNL1       -0.2702
      8 N          -1.0540    0.1400    4.2120 N.am    1  UNL1       -0.3085
      9 C          -1.0000   -0.3380    5.5850 C.3     1  UNL1        0.0234
     10 C          -0.9490    0.8140    6.5860 C.3     1  UNL1       -0.0345
     11 C           0.5140    1.2480    6.5920 C.3     1  UNL1       -0.0513
     12 C           1.3220    0.0170    6.1810 C.3     1  UNL1       -0.0513
     13 C           0.3030   -1.0780    5.8660 C.3     1  UNL1       -0.0345
     14 C          -1.1570    0.7870    1.3820 C.ar    1  UNL1       -0.0417
     15 C          -1.0960    1.3700    0.1010 C.ar    1  UNL1       -0.0143
     16 C          -0.0130    0.9680   -0.8070 C.ar    1  UNL1       -0.0176
     17 C          -0.1040   -0.2230   -1.5440 C.ar    1  UNL1       -0.0533
     18 C           0.9290   -0.6170   -2.4020 C.ar    1  UNL1       -0.0491
     19 C           2.0690    0.1840   -2.5380 C.ar    1  UNL1        0.0367
     20 C           3.1980   -0.1940   -3.4340 C.2     1  UNL1        0.2441
     21 O           4.3300    0.2180   -3.2060 O.2     1  UNL1       -0.2702
     22 N           2.8780   -0.9810   -4.5200 N.am    1  UNL1       -0.3111
     23 C           3.8760   -1.2710   -5.5220 C.3     1  UNL1        0.0147
     24 C           3.3630   -2.3430   -6.4270 C.3     1  UNL1       -0.0254
     25 C           2.3800   -2.0200   -7.5250 C.3     1  UNL1       -0.0485
     26 C           3.7960   -2.3940   -7.8700 C.3     1  UNL1       -0.0485
     27 C           2.1760    1.3640   -1.7930 C.ar    1  UNL1       -0.0491
     28 C           1.1410    1.7530   -0.9380 C.ar    1  UNL1       -0.0533
     29 H          -2.0700    2.2160   -2.4190 H       1  UNL1        0.0278
     30 H          -2.9580    3.5950   -1.7740 H       1  UNL1        0.0278
     31 H          -1.1920    3.6140   -1.7290 H       1  UNL1        0.0278
     32 H          -3.8630    3.3710    0.3690 H       1  UNL1        0.0621
     33 H          -3.9380    2.3320    2.5970 H       1  UNL1        0.0625
     34 H          -0.1960    0.4780    3.7990 H       1  UNL1        0.1493
     35 H          -1.8710   -0.9780    5.7630 H       1  UNL1        0.0498
     36 H          -1.6180    1.6440    6.3380 H       1  UNL1        0.0283
     37 H          -1.2210    0.4480    7.5840 H       1  UNL1        0.0283
     38 H           0.6740    2.0540    5.8670 H       1  UNL1        0.0266
     39 H           0.8170    1.6270    7.5740 H       1  UNL1        0.0266
     40 H           2.0070   -0.3000    6.9730 H       1  UNL1        0.0266
     41 H           1.9280    0.2460    5.2970 H       1  UNL1        0.0266
     42 H           0.6290   -1.7130    5.0360 H       1  UNL1        0.0283
     43 H           0.1800   -1.7170    6.7490 H       1  UNL1        0.0283
     44 H          -0.4190    0.0360    1.6520 H       1  UNL1        0.0631
     45 H          -0.9840   -0.8560   -1.4460 H       1  UNL1        0.0624
     46 H           0.8380   -1.5610   -2.9320 H       1  UNL1        0.0625
     47 H           1.9110   -1.0320   -4.8070 H       1  UNL1        0.1490
     48 H           4.0870   -0.3410   -6.0630 H       1  UNL1        0.0465
     49 H           4.8000   -1.5950   -5.0310 H       1  UNL1        0.0465
     50 H           3.2550   -3.2890   -5.9090 H       1  UNL1        0.0316
     51 H           2.0810   -0.9890   -7.6750 H       1  UNL1        0.0269
     52 H           1.6000   -2.7440   -7.7370 H       1  UNL1        0.0269
     53 H           4.4490   -1.6150   -8.2480 H       1  UNL1        0.0269
     54 H           3.9710   -3.3680   -8.3120 H       1  UNL1        0.0269
     55 H           3.0660    1.9840   -1.8770 H       1  UNL1        0.0625
     56 H           1.2420    2.6760   -0.3690 H       1  UNL1        0.0624
@<TRIPOS>BOND
     1     1     2    1
     2     1    29    1
     3     1    30    1
     4     1    31    1
     5     2     3   ar
     6     2    15   ar
     7     3     4   ar
     8     3    32    1
     9     4     5   ar
    10     4    33    1
    11     5     6    1
    12     5    14   ar
    13     6     7    2
    14     6     8   am
    15     8     9    1
    16     8    34    1
    17     9    10    1
    18     9    13    1
    19     9    35    1
    20    10    11    1
    21    10    36    1
    22    10    37    1
    23    11    12    1
    24    11    38    1
    25    11    39    1
    26    12    13    1
    27    12    40    1
    28    12    41    1
    29    13    42    1
    30    13    43    1
    31    14    15   ar
    32    14    44    1
    33    15    16    1
    34    16    17   ar
    35    16    28   ar
    36    17    18   ar
    37    17    45    1
    38    18    19   ar
    39    18    46    1
    40    19    20    1
    41    19    27   ar
    42    20    21    2
    43    20    22   am
    44    22    23    1
    45    22    47    1
    46    23    24    1
    47    23    48    1
    48    23    49    1
    49    24    25    1
    50    24    26    1
    51    24    50    1
    52    25    26    1
    53    25    51    1
    54    25    52    1
    55    26    53    1
    56    26    54    1
    57    27    28   ar
    58    27    55    1
    59    28    56    1
@<TRIPOS>MOLECULE
AD3CC00624654-I00-C00
 53 56 0 0 0
SMALL
GASTEIGER

@<TRIPOS>ATOM
      1 C           4.0160    0.1180    1.9130 C.3     1  UNL1       -0.0391
      2 C           2.5590    0.0690    2.2950 C.ar    1  UNL1       -0.0427
      3 C           2.2110    0.1770    3.6530 C.ar    1  UNL1       -0.0575
      4 C           0.8750    0.1420    4.0560 C.ar    1  UNL1       -0.0494
      5 C          -0.1340   -0.0140    3.1030 C.ar    1  UNL1        0.0373
      6 C          -1.5730   -0.0490    3.4770 C.2     1  UNL1        0.2443
      7 O          -2.4220    0.3650    2.6950 O.2     1  UNL1       -0.2702
      8 N          -1.8720   -0.5910    4.7120 N.am    1  UNL1       -0.3085
      9 C          -3.2620   -0.7160    5.1800 C.3     1  UNL1        0.0234
     10 C          -3.4000   -1.2470    6.6280 C.3     1  UNL1       -0.0344
     11 C          -4.5510   -0.2370    6.8090 C.3     1  UNL1       -0.0497
     12 C          -3.8920    0.6010    5.6950 C.3     1  UNL1       -0.0344
     13 C           0.2030   -0.1140    1.7480 C.ar    1  UNL1       -0.0417
     14 C           1.5440   -0.0850    1.3250 C.ar    1  UNL1       -0.0143
     15 C           1.8380   -0.2080   -0.1100 C.ar    1  UNL1       -0.0176
     16 C           2.3320   -1.4080   -0.6440 C.ar    1  UNL1       -0.0533
     17 C           2.6080   -1.5230   -2.0090 C.ar    1  UNL1       -0.0491
     18 C           2.3790   -0.4420   -2.8680 C.ar    1  UNL1        0.0367
     19 C           2.6860   -0.6090   -4.3160 C.2     1  UNL1        0.2441
     20 O           3.5180   -1.4320   -4.6790 O.2     1  UNL1       -0.2702
     21 N           1.9610    0.1770   -5.1870 N.am    1  UNL1       -0.3111
     22 C           2.0770   -0.0240   -6.6110 C.3     1  UNL1        0.0147
     23 C           1.4120    1.1090   -7.3210 C.3     1  UNL1       -0.0254
     24 C          -0.0880    1.1550   -7.4680 C.3     1  UNL1       -0.0485
     25 C           0.7770    0.8960   -8.6710 C.3     1  UNL1       -0.0485
     26 C           1.8950    0.7630   -2.3460 C.ar    1  UNL1       -0.0491
     27 C           1.6230    0.8740   -0.9790 C.ar    1  UNL1       -0.0533
     28 H           4.3530   -0.8680    1.5780 H       1  UNL1        0.0278
     29 H           4.1850    0.8540    1.1200 H       1  UNL1        0.0278
     30 H           4.6420    0.4130    2.7620 H       1  UNL1        0.0278
     31 H           2.9860    0.3040    4.4080 H       1  UNL1        0.0621
     32 H           0.6410    0.2690    5.1090 H       1  UNL1        0.0625
     33 H          -1.1300   -1.0580    5.2170 H       1  UNL1        0.1493
     34 H          -3.8930   -1.2580    4.4640 H       1  UNL1        0.0498
     35 H          -2.5380   -1.0480    7.2760 H       1  UNL1        0.0283
     36 H          -3.6790   -2.2990    6.7230 H       1  UNL1        0.0283
     37 H          -5.5360   -0.6360    6.5370 H       1  UNL1        0.0266
     38 H          -4.6170    0.2410    7.7890 H       1  UNL1        0.0266
     39 H          -3.1720    1.3390    6.0680 H       1  UNL1        0.0283
     40 H          -4.5830    1.0960    5.0070 H       1  UNL1        0.0283
     41 H          -0.5930   -0.2250    1.0100 H       1  UNL1        0.0631
     42 H           2.5070   -2.2640    0.0060 H       1  UNL1        0.0624
     43 H           2.9970   -2.4600   -2.4030 H       1  UNL1        0.0625
     44 H           1.1060    0.5980   -4.8510 H       1  UNL1        0.1490
     45 H           3.1360   -0.0790   -6.8840 H       1  UNL1        0.0465
     46 H           1.6150   -0.9880   -6.8520 H       1  UNL1        0.0465
     47 H           1.9370    2.0460   -7.1630 H       1  UNL1        0.0316
     48 H          -0.5770    2.1200   -7.3940 H       1  UNL1        0.0269
     49 H          -0.6770    0.3290   -7.0840 H       1  UNL1        0.0269
     50 H           0.7720   -0.1020   -9.0940 H       1  UNL1        0.0269
     51 H           0.8730    1.6870   -9.4070 H       1  UNL1        0.0269
     52 H           1.7500    1.6320   -2.9810 H       1  UNL1        0.0625
     53 H           1.2500    1.8190   -0.5860 H       1  UNL1        0.0624
@<TRIPOS>BOND
     1     1     2    1
     2     1    28    1
     3     1    29    1
     4     1    30    1
     5     2     3   ar
     6     2    14   ar
     7     3     4   ar
     8     3    31    1
     9     4     5   ar
    10     4    32    1
    11     5     6    1
    12     5    13   ar
    13     6     7    2
    14     6     8   am
    15     8     9    1
    16     8    33    1
    17     9    10    1
    18     9    12    1
    19     9    34    1
    20    10    11    1
    21    10    35    1
    22    10    36    1
    23    11    12    1
    24    11    37    1
    25    11    38    1
    26    12    39    1
    27    12    40    1
    28    13    14   ar
    29    13    41    1
    30    14    15    1
    31    15    16   ar
    32    15    27   ar
    33    16    17   ar
    34    16    42    1
    35    17    18   ar
    36    17    43    1
    37    18    19    1
    38    18    26   ar
    39    19    20    2
    40    19    21   am
    41    21    22    1
    42    21    44    1
    43    22    23    1
    44    22    45    1
    45    22    46    1
    46    23    24    1
    47    23    25    1
    48    23    47    1
    49    24    25    1
    50    24    48    1
    51    24    49    1
    52    25    50    1
    53    25    51    1
    54    26    27   ar
    55    26    52    1
    56    27    53    1
@<TRIPOS>MOLECULE
AD3CC00643973-I00-C00
 78 82 0 0 0
SMALL
GASTEIGER

@<TRIPOS>ATOM
      1 C          -4.3630   -3.3900    7.3710 C.3     1  UNL1       -0.0396
      2 C          -3.7660   -2.6190    6.2320 C.ar    1  UNL1       -0.0484
      3 C          -3.9630   -1.2400    6.1250 C.ar    1  UNL1       -0.0587
      4 C          -3.4220   -0.5320    5.0520 C.ar    1  UNL1       -0.0595
      5 C          -2.6950   -1.1970    4.0610 C.ar    1  UNL1       -0.0362
      6 C          -2.5210   -2.5830    4.1280 C.ar    1  UNL1        0.0663
      7 N          -1.7690   -3.3020    3.1470 N.ar    1  UNL1       -0.2301
      8 N          -1.2190   -4.4950    3.5070 N.ar    1  UNL1       -0.1702
      9 C          -0.3320   -4.7890    2.5550 C.ar    1  UNL1        0.0694
     10 C           0.5550   -6.0200    2.6430 C.3     1  UNL1        0.0062
     11 C           2.0340   -5.6180    2.4680 C.3     1  UNL1       -0.0546
     12 C           0.1730   -7.0190    1.5320 C.3     1  UNL1       -0.0546
     13 C           0.4190   -6.7410    4.0020 C.3     1  UNL1       -0.0546
     14 C          -0.4050   -3.8510    1.5060 C.ar    1  UNL1       -0.0104
     15 C          -1.4110   -2.9600    1.8470 C.ar    1  UNL1        0.1014
     16 C          -2.0120   -1.9490    1.0080 C.2     1  UNL1        0.1894
     17 N          -3.2750   -1.6530    1.1350 N.2     1  UNL1       -0.0801
     18 O          -3.6930   -0.6590    0.2450 O.2     1  UNL1       -0.4086
     19 C          -1.0940   -1.2600   -0.0130 C.2     1  UNL1        0.2719
     20 O          -0.5300   -1.9370   -0.8580 O.2     1  UNL1       -0.2680
     21 N          -1.0250    0.1070    0.1880 N.am    1  UNL1       -0.2796
     22 C          -0.2580    1.0640   -0.5230 C.ar    1  UNL1        0.0417
     23 C           0.6760    0.6600   -1.4820 C.ar    1  UNL1       -0.0364
     24 C           1.4230    1.5930   -2.1990 C.ar    1  UNL1       -0.0176
     25 C           1.2550    2.9560   -1.9700 C.ar    1  UNL1        0.1283
     26 O           1.9610    3.9280   -2.6400 O.3     1  UNL1       -0.4901
     27 C           2.5920    3.5530   -3.8700 C.3     1  UNL1        0.1023
     28 C           3.1000    4.8370   -4.5470 C.3     1  UNL1        0.0333
     29 N           3.8650    4.6030   -5.7860 N.3     1  UNL1       -0.2948
     30 C           2.9970    4.1400   -6.8930 C.3     1  UNL1        0.0225
     31 C           3.7870    3.9970   -8.2050 C.3     1  UNL1        0.0604
     32 O           4.4070    5.2350   -8.5770 O.3     1  UNL1       -0.3772
     33 C           5.2900    5.6700   -7.5350 C.3     1  UNL1        0.0604
     34 C           4.5320    5.8560   -6.2110 C.3     1  UNL1        0.0225
     35 C           0.3420    3.4020   -0.9840 C.ar    1  UNL1        0.0256
     36 C           0.1780    4.7820   -0.7190 C.ar    1  UNL1       -0.0505
     37 C          -0.7170    5.2500    0.2400 C.ar    1  UNL1       -0.0611
     38 C          -1.4730    4.3440    0.9630 C.ar    1  UNL1       -0.0611
     39 C          -1.3330    2.9750    0.7230 C.ar    1  UNL1       -0.0521
     40 C          -0.4310    2.4580   -0.2480 C.ar    1  UNL1        0.0068
     41 C          -3.0460   -3.2840    5.2290 C.ar    1  UNL1       -0.0333
     42 H          -5.3470   -3.7760    7.0860 H       1  UNL1        0.0278
     43 H          -4.4760   -2.7570    8.2570 H       1  UNL1        0.0278
     44 H          -3.7200   -4.2310    7.6530 H       1  UNL1        0.0278
     45 H          -4.5310   -0.7060    6.8850 H       1  UNL1        0.0620
     46 H          -3.5600    0.5450    4.9930 H       1  UNL1        0.0618
     47 H          -2.2540   -0.5960    3.2750 H       1  UNL1        0.0639
     48 H           2.3400   -4.8960    3.2350 H       1  UNL1        0.0239
     49 H           2.2160   -5.1560    1.4910 H       1  UNL1        0.0239
     50 H           2.6930   -6.4900    2.5460 H       1  UNL1        0.0239
     51 H           0.7900   -7.9230    1.5810 H       1  UNL1        0.0239
     52 H           0.3050   -6.5820    0.5350 H       1  UNL1        0.0239
     53 H          -0.8770   -7.3240    1.6190 H       1  UNL1        0.0239
     54 H           0.6820   -6.0780    4.8350 H       1  UNL1        0.0239
     55 H          -0.6050   -7.0950    4.1680 H       1  UNL1        0.0239
     56 H           1.0790   -7.6150    4.0540 H       1  UNL1        0.0239
     57 H           0.1430   -3.8820    0.5730 H       1  UNL1        0.0658
     58 H          -4.6680   -0.7000    0.3240 H       1  UNL1        0.3278
     59 H          -1.7200    0.4540    0.8340 H       1  UNL1        0.1552
     60 H           0.8560   -0.3870   -1.7030 H       1  UNL1        0.0637
     61 H           2.1380    1.2160   -2.9220 H       1  UNL1        0.0655
     62 H           1.8680    3.0470   -4.5190 H       1  UNL1        0.0709
     63 H           3.4420    2.8920   -3.6630 H       1  UNL1        0.0709
     64 H           3.7430    5.3480   -3.8170 H       1  UNL1        0.0460
     65 H           2.2570    5.5190   -4.7210 H       1  UNL1        0.0460
     66 H           2.5570    3.1660   -6.6540 H       1  UNL1        0.0449
     67 H           2.1780    4.8550   -7.0490 H       1  UNL1        0.0449
     68 H           3.1080    3.7120   -9.0160 H       1  UNL1        0.0572
     69 H           4.5540    3.2170   -8.1240 H       1  UNL1        0.0572
     70 H           5.7270    6.6240   -7.8490 H       1  UNL1        0.0572
     71 H           6.1090    4.9490   -7.4280 H       1  UNL1        0.0572
     72 H           3.7860    6.6510   -6.3380 H       1  UNL1        0.0449
     73 H           5.2450    6.1780   -5.4440 H       1  UNL1        0.0449
     74 H           0.7620    5.5160   -1.2710 H       1  UNL1        0.0625
     75 H          -0.8170    6.3170    0.4160 H       1  UNL1        0.0618
     76 H          -2.1740    4.6980    1.7130 H       1  UNL1        0.0618
     77 H          -1.9550    2.3200    1.3240 H       1  UNL1        0.0624
     78 H          -2.9080   -4.3630    5.3060 H       1  UNL1        0.0641
@<TRIPOS>BOND
     1     1     2    1
     2     1    42    1
     3     1    43    1
     4     1    44    1
     5     2     3   ar
     6     2    41   ar
     7     3     4   ar
     8     3    45    1
     9     4     5   ar
    10     4    46    1
    11     5     6   ar
    12     5    47    1
    13     6     7    1
    14     6    41   ar
    15     7     8   ar
    16     7    15   ar
    17     8     9   ar
    18     9    10    1
    19     9    14   ar
    20    10    11    1
    21    10    12    1
    22    10    13    1
    23    11    48    1
    24    11    49    1
    25    11    50    1
    26    12    51    1
    27    12    52    1
    28    12    53    1
    29    13    54    1
    30    13    55    1
    31    13    56    1
    32    14    15   ar
    33    14    57    1
    34    15    16    1
    35    16    17    2
    36    16    19    1
    37    17    18    1
    38    18    58    1
    39    19    20    2
    40    19    21   am
    41    21    22    1
    42    21    59    1
    43    22    23   ar
    44    22    40   ar
    45    23    24   ar
    46    23    60    1
    47    24    25   ar
    48    24    61    1
    49    25    26    1
    50    25    35   ar
    51    26    27    1
    52    27    28    1
    53    27    62    1
    54    27    63    1
    55    28    29    1
    56    28    64    1
    57    28    65    1
    58    29    30    1
    59    29    34    1
    60    30    31    1
    61    30    66    1
    62    30    67    1
    63    31    32    1
    64    31    68    1
    65    31    69    1
    66    32    33    1
    67    33    34    1
    68    33    70    1
    69    33    71    1
    70    34    72    1
    71    34    73    1
    72    35    36   ar
    73    35    40   ar
    74    36    37   ar
    75    36    74    1
    76    37    38   ar
    77    37    75    1
    78    38    39   ar
    79    38    76    1
    80    39    40   ar
    81    39    77    1
    82    41    78    1
@<TRIPOS>MOLECULE
AD3CC00645650-I00-C00
 34 37 0 0 0
SMALL
GASTEIGER

@<TRIPOS>ATOM
      1 F           2.7460    2.1100    4.9210 F       1  UNL1       -0.2055
      2 C           2.3400    1.8060    3.6810 C.ar    1  UNL1        0.1234
      3 C           0.9810    1.7390    3.4030 C.ar    1  UNL1       -0.0258
      4 C           0.5550    1.4220    2.1100 C.ar    1  UNL1       -0.0498
      5 C           1.4910    1.1650    1.0960 C.ar    1  UNL1        0.0029
      6 C           1.0650    0.8240   -0.2660 C.ar    1  UNL1        0.1014
      7 N           1.7440    1.3000   -1.3200 N.ar    1  UNL1       -0.1657
      8 N           1.1100    0.8230   -2.4150 N.ar    1  UNL1       -0.2387
      9 C           1.4510    1.0670   -3.7470 C.ar    1  UNL1        0.0298
     10 C           0.7420    0.5080   -4.7410 C.ar    1  UNL1       -0.0435
     11 C          -0.3720   -0.3580   -4.4020 C.ar    1  UNL1       -0.0583
     12 C          -0.7130   -0.5980   -3.1220 C.ar    1  UNL1       -0.0356
     13 C           0.0300    0.0120   -2.0650 C.ar    1  UNL1        0.0751
     14 C          -0.0270    0.0050   -0.6860 C.ar    1  UNL1        0.0352
     15 C          -0.9910   -0.7620    0.0790 C.ar    1  UNL1       -0.0109
     16 C          -2.3560   -0.4880   -0.0220 C.ar    1  UNL1       -0.0357
     17 C          -3.2320   -1.2400    0.7420 C.ar    1  UNL1        0.0281
     18 N          -2.8420   -2.2220    1.5810 N.ar    1  UNL1       -0.2632
     19 C          -1.5160   -2.4660    1.6610 C.ar    1  UNL1        0.0281
     20 C          -0.5610   -1.7710    0.9400 C.ar    1  UNL1       -0.0357
     21 C           2.8600    1.2500    1.3990 C.ar    1  UNL1       -0.0498
     22 C           3.2850    1.5670    2.6910 C.ar    1  UNL1       -0.0258
     23 H           0.2600    1.9380    4.1900 H       1  UNL1        0.0646
     24 H          -0.5120    1.3950    1.9050 H       1  UNL1        0.0625
     25 H           2.3010    1.7160   -3.9080 H       1  UNL1        0.0830
     26 H           0.9840    0.6780   -5.7850 H       1  UNL1        0.0633
     27 H          -0.9240   -0.8160   -5.2180 H       1  UNL1        0.0619
     28 H          -1.5430   -1.2580   -2.8870 H       1  UNL1        0.0639
     29 H          -2.7320    0.2950   -0.6720 H       1  UNL1        0.0639
     30 H          -4.3030   -1.0650    0.7000 H       1  UNL1        0.0830
     31 H          -1.2320   -3.2620    2.3440 H       1  UNL1        0.0830
     32 H           0.4900   -2.0170    1.0490 H       1  UNL1        0.0639
     33 H           3.6030    1.0700    0.6230 H       1  UNL1        0.0625
     34 H           4.3420    1.6330    2.9260 H       1  UNL1        0.0646
@<TRIPOS>BOND
     1     1     2    1
     2     2     3   ar
     3     2    22   ar
     4     3     4   ar
     5     3    23    1
     6     4     5   ar
     7     4    24    1
     8     5     6    1
     9     5    21   ar
    10     6     7   ar
    11     6    14   ar
    12     7     8   ar
    13     8     9   ar
    14     8    13   ar
    15     9    10   ar
    16     9    25    1
    17    10    11   ar
    18    10    26    1
    19    11    12   ar
    20    11    27    1
    21    12    13   ar
    22    12    28    1
    23    13    14   ar
    24    14    15    1
    25    15    16   ar
    26    15    20   ar
    27    16    17   ar
    28    16    29    1
    29    17    18   ar
    30    17    30    1
    31    18    19   ar
    32    19    20   ar
    33    19    31    1
    34    20    32    1
    35    21    22   ar
    36    21    33    1
    37    22    34    1
@<TRIPOS>MOLECULE
AD3CC00645775-I00-C00
 34 37 0 0 0
SMALL
GASTEIGER

@<TRIPOS>ATOM
      1 F           4.5890    4.1510   -0.9510 F       1  UNL1       -0.2055
      2 C           3.7300    3.1240   -0.9750 C.ar    1  UNL1        0.1234
      3 C           3.4720    2.4200    0.1960 C.ar    1  UNL1       -0.0258
      4 C           2.5760    1.3480    0.1750 C.ar    1  UNL1       -0.0498
      5 C           1.9300    0.9830   -1.0170 C.ar    1  UNL1        0.0029
      6 C           0.9810   -0.1340   -1.0600 C.ar    1  UNL1        0.1014
      7 N           0.9430   -0.9380   -2.1320 N.ar    1  UNL1       -0.1644
      8 N          -0.0170   -1.8670   -1.8790 N.ar    1  UNL1       -0.2203
      9 C          -0.4230   -2.9390   -2.7020 C.ar    1  UNL1        0.1314
     10 CL          0.3470   -3.2040   -4.2260 Cl      1  UNL1       -0.0620
     11 C          -1.4130   -3.7540   -2.2970 C.ar    1  UNL1       -0.0247
     12 C          -2.0570   -3.5090   -1.0200 C.ar    1  UNL1       -0.0569
     13 C          -1.6780   -2.4920   -0.2260 C.ar    1  UNL1       -0.0355
     14 C          -0.6150   -1.6300   -0.6340 C.ar    1  UNL1        0.0768
     15 C           0.0160   -0.5310   -0.0880 C.ar    1  UNL1        0.0353
     16 C          -0.3500    0.0600    1.1850 C.ar    1  UNL1       -0.0109
     17 C          -0.1940   -0.6580    2.3710 C.ar    1  UNL1       -0.0357
     18 C          -0.5460   -0.0410    3.5590 C.ar    1  UNL1        0.0281
     19 N          -1.0310    1.2170    3.6350 N.ar    1  UNL1       -0.2632
     20 C          -1.1700    1.8900    2.4730 C.ar    1  UNL1        0.0281
     21 C          -0.8470    1.3620    1.2350 C.ar    1  UNL1       -0.0357
     22 C           2.2160    1.7030   -2.1900 C.ar    1  UNL1       -0.0498
     23 C           3.1130    2.7740   -2.1680 C.ar    1  UNL1       -0.0258
     24 H           3.9740    2.7050    1.1150 H       1  UNL1        0.0646
     25 H           2.4050    0.7960    1.0950 H       1  UNL1        0.0625
     26 H          -1.7560   -4.5890   -2.8990 H       1  UNL1        0.0648
     27 H          -2.8670   -4.1710   -0.7260 H       1  UNL1        0.0619
     28 H          -2.1810   -2.3170    0.7210 H       1  UNL1        0.0639
     29 H           0.1990   -1.6680    2.3780 H       1  UNL1        0.0639
     30 H          -0.4430   -0.5550    4.5100 H       1  UNL1        0.0830
     31 H          -1.5610    2.9000    2.5660 H       1  UNL1        0.0830
     32 H          -0.9820    1.9570    0.3380 H       1  UNL1        0.0639
     33 H           1.7400    1.4270   -3.1300 H       1  UNL1        0.0625
     34 H           3.3340    3.3290   -3.0740 H       1  UNL1        0.0646
@<TRIPOS>BOND
     1     1     2    1
     2     2     3   ar
     3     2    23   ar
     4     3     4   ar
     5     3    24    1
     6     4     5   ar
     7     4    25    1
     8     5     6    1
     9     5    22   ar
    10     6     7   ar
    11     6    15   ar
    12     7     8   ar
    13     8     9   ar
    14     8    14   ar
    15     9    10    1
    16     9    11   ar
    17    11    12   ar
    18    11    26    1
    19    12    13   ar
    20    12    27    1
    21    13    14   ar
    22    13    28    1
    23    14    15   ar
    24    15    16    1
    25    16    17   ar
    26    16    21   ar
    27    17    18   ar
    28    17    29    1
    29    18    19   ar
    30    18    30    1
    31    19    20   ar
    32    20    21   ar
    33    20    31    1
    34    21    32    1
    35    22    23   ar
    36    22    33    1
    37    23    34    1
@<TRIPOS>MOLECULE
AD3CC00645776-I00-C00
 48 52 0 0 0
SMALL
GASTEIGER

@<TRIPOS>ATOM
      1 F          -4.3250   -4.9170   -0.1610 F       1  UNL1       -0.2055
      2 C          -3.5490   -3.8250   -0.1580 C.ar    1  UNL1        0.1234
      3 C          -2.7970   -3.5170   -1.2840 C.ar    1  UNL1       -0.0258
      4 C          -1.9890   -2.3770   -1.2790 C.ar    1  UNL1       -0.0498
      5 C          -1.9350   -1.5420   -0.1500 C.ar    1  UNL1        0.0029
      6 C          -1.0830   -0.3480   -0.1670 C.ar    1  UNL1        0.1015
      7 N           0.1040   -0.3870   -0.7870 N.ar    1  UNL1       -0.1627
      8 N           0.6570    0.8460   -0.6310 N.ar    1  UNL1       -0.1993
      9 C           1.9190    1.2950   -1.1020 C.ar    1  UNL1        0.2166
     10 O           2.7670    0.4720   -1.8310 O.3     1  UNL1       -0.4730
     11 C           3.1370   -0.7370   -1.1540 C.3     1  UNL1        0.1018
     12 C           2.8100   -1.9340   -2.0410 C.3     1  UNL1       -0.0157
     13 C           3.9270   -1.9650   -3.0830 C.3     1  UNL1       -0.0496
     14 C           5.1030   -1.2050   -2.4730 C.3     1  UNL1       -0.0496
     15 C           4.6600   -0.7990   -1.0700 C.3     1  UNL1       -0.0157
     16 C           2.2740    2.5750   -0.8910 C.ar    1  UNL1        0.0001
     17 C           1.3840    3.4610   -0.1680 C.ar    1  UNL1       -0.0547
     18 C           0.1950    3.0380    0.2960 C.ar    1  UNL1       -0.0353
     19 C          -0.2080    1.6860    0.0810 C.ar    1  UNL1        0.0789
     20 C          -1.3230    0.9370    0.4000 C.ar    1  UNL1        0.0354
     21 C          -2.4770    1.4660    1.1020 C.ar    1  UNL1       -0.0109
     22 C          -3.7200    1.5150    0.4700 C.ar    1  UNL1       -0.0357
     23 C          -4.7960    2.0130    1.1850 C.ar    1  UNL1        0.0281
     24 N          -4.7120    2.4540    2.4580 N.ar    1  UNL1       -0.2632
     25 C          -3.4980    2.3950    3.0460 C.ar    1  UNL1        0.0281
     26 C          -2.3620    1.9140    2.4180 C.ar    1  UNL1       -0.0357
     27 C          -2.6950   -1.8810    0.9810 C.ar    1  UNL1       -0.0498
     28 C          -3.5050   -3.0200    0.9740 C.ar    1  UNL1       -0.0258
     29 H          -2.8390   -4.1610   -2.1550 H       1  UNL1        0.0646
     30 H          -1.3960   -2.1410   -2.1610 H       1  UNL1        0.0625
     31 H           2.6940   -0.8230   -0.1550 H       1  UNL1        0.0733
     32 H           1.8310   -1.8580   -2.5230 H       1  UNL1        0.0301
     33 H           2.8370   -2.8560   -1.4500 H       1  UNL1        0.0301
     34 H           3.6040   -1.4720   -4.0080 H       1  UNL1        0.0266
     35 H           4.1980   -2.9940   -3.3390 H       1  UNL1        0.0266
     36 H           5.3220   -0.3150   -3.0750 H       1  UNL1        0.0266
     37 H           6.0130   -1.8120   -2.4450 H       1  UNL1        0.0266
     38 H           4.9660   -1.5690   -0.3520 H       1  UNL1        0.0301
     39 H           5.1090    0.1540   -0.7740 H       1  UNL1        0.0301
     40 H           3.2170    2.9650   -1.2600 H       1  UNL1        0.0671
     41 H           1.7040    4.4880   -0.0200 H       1  UNL1        0.0620
     42 H          -0.4640    3.7210    0.8220 H       1  UNL1        0.0639
     43 H          -3.8540    1.1770   -0.5520 H       1  UNL1        0.0639
     44 H          -5.7840    2.0730    0.7380 H       1  UNL1        0.0830
     45 H          -3.4620    2.7540    4.0710 H       1  UNL1        0.0830
     46 H          -1.4170    1.8850    2.9490 H       1  UNL1        0.0639
     47 H          -2.6570   -1.2760    1.8830 H       1  UNL1        0.0625
     48 H          -4.0940   -3.2860    1.8450 H       1  UNL1        0.0646
@<TRIPOS>BOND
     1     1     2    1
     2     2     3   ar
     3     2    28   ar
     4     3     4   ar
     5     3    29    1
     6     4     5   ar
     7     4    30    1
     8     5     6    1
     9     5    27   ar
    10     6     7   ar
    11     6    20   ar
    12     7     8   ar
    13     8     9   ar
    14     8    19   ar
    15     9    10    1
    16     9    16   ar
    17    10    11    1
    18    11    12    1
    19    11    15    1
    20    11    31    1
    21    12    13    1
    22    12    32    1
    23    12    33    1
    24    13    14    1
    25    13    34    1
    26    13    35    1
    27    14    15    1
    28    14    36    1
    29    14    37    1
    30    15    38    1
    31    15    39    1
    32    16    17   ar
    33    16    40    1
    34    17    18   ar
    35    17    41    1
    36    18    19   ar
    37    18    42    1
    38    19    20   ar
    39    20    21    1
    40    21    22   ar
    41    21    26   ar
    42    22    23   ar
    43    22    43    1
    44    23    24   ar
    45    23    44    1
    46    24    25   ar
    47    25    26   ar
    48    25    45    1
    49    26    46    1
    50    27    28   ar
    51    27    47    1
    52    28    48    1
@<TRIPOS>MOLECULE
AD3CC00682295-I00-C00
 36 38 0 0 0
SMALL
GASTEIGER

@<TRIPOS>ATOM
      1 N           0.8770   -0.1270   -2.2480 N.pl3   1  UNL1       -0.3523
      2 C           0.3050    0.4680   -1.0960 C.ar    1  UNL1        0.1099
      3 C          -0.4290   -0.3180   -0.1840 C.ar    1  UNL1        0.0550
      4 C          -0.7590   -1.7270   -0.5170 C.2     1  UNL1        0.1953
      5 O          -1.1900   -1.9820   -1.6390 O.2     1  UNL1       -0.2866
      6 C          -0.5820   -2.8140    0.4800 C.ar    1  UNL1        0.0223
      7 C           0.4190   -2.7590    1.4580 C.ar    1  UNL1       -0.0509
      8 C           0.5540   -3.8040    2.3740 C.ar    1  UNL1       -0.0611
      9 C          -0.3000   -4.9050    2.3100 C.ar    1  UNL1       -0.0617
     10 C          -1.2850   -4.9710    1.3250 C.ar    1  UNL1       -0.0611
     11 C          -1.4230   -3.9300    0.4060 C.ar    1  UNL1       -0.0509
     12 C          -0.9100    0.2260    1.0060 C.ar    1  UNL1        0.0160
     13 C          -0.6070    1.5450    1.3160 C.ar    1  UNL1        0.1842
     14 N           0.1710    2.3370    0.4830 N.ar    1  UNL1       -0.1688
     15 O           0.4120    3.5370    0.8390 O.co2   1  UNL1       -0.6193
     16 C           0.6540    1.7930   -0.7190 C.ar    1  UNL1        0.2491
     17 C           1.5230    2.6470   -1.5410 C.ar    1  UNL1        0.0676
     18 C           0.9600    3.4400   -2.5590 C.ar    1  UNL1       -0.0468
     19 C           1.7630    4.2500   -3.3650 C.ar    1  UNL1       -0.0609
     20 C           3.1410    4.2830   -3.1670 C.ar    1  UNL1       -0.0603
     21 C           3.7180    3.5080   -2.1620 C.ar    1  UNL1       -0.0426
     22 C           2.9160    2.6960   -1.3530 C.ar    1  UNL1        0.0545
     23 CL          3.7020    1.7480   -0.1350 Cl      1  UNL1       -0.0827
     24 H           0.3160   -0.9160   -2.5920 H       1  UNL1        0.1425
     25 H           1.0990    0.5220   -2.9980 H       1  UNL1        0.1425
     26 H           1.1160   -1.9260    1.5080 H       1  UNL1        0.0625
     27 H           1.3330   -3.7650    3.1330 H       1  UNL1        0.0618
     28 H          -0.1890   -5.7200    3.0220 H       1  UNL1        0.0618
     29 H          -1.9400   -5.8370    1.2670 H       1  UNL1        0.0618
     30 H          -2.1870   -3.9920   -0.3670 H       1  UNL1        0.0625
     31 H          -1.5220   -0.3560    1.6900 H       1  UNL1        0.0685
     32 H          -0.9310    2.0600    2.2090 H       1  UNL1        0.1390
     33 H          -0.1170    3.4390   -2.7200 H       1  UNL1        0.0626
     34 H           1.3100    4.8640   -4.1400 H       1  UNL1        0.0618
     35 H           3.7660    4.9190   -3.7900 H       1  UNL1        0.0618
     36 H           4.7940    3.5420   -2.0100 H       1  UNL1        0.0632
@<TRIPOS>UNITY_ATOM_ATTR
14 1
charge 1
15 1
charge -1
@<TRIPOS>BOND
     1     1     2    1
     2     1    24    1
     3     1    25    1
     4     2     3   ar
     5     2    16   ar
     6     3     4    1
     7     3    12   ar
     8     4     5    2
     9     4     6    1
    10     6     7   ar
    11     6    11   ar
    12     7     8   ar
    13     7    26    1
    14     8     9   ar
    15     8    27    1
    16     9    10   ar
    17     9    28    1
    18    10    11   ar
    19    10    29    1
    20    11    30    1
    21    12    13   ar
    22    12    31    1
    23    13    14   ar
    24    13    32    1
    25    14    15    1
    26    14    16   ar
    27    16    17    1
    28    17    18   ar
    29    17    22   ar
    30    18    19   ar
    31    18    33    1
    32    19    20   ar
    33    19    34    1
    34    20    21   ar
    35    20    35    1
    36    21    22   ar
    37    21    36    1
    38    22    23    1
@<TRIPOS>MOLECULE
AD3CC00688021-I00-C00
 36 38 0 0 0
SMALL
GASTEIGER

@<TRIPOS>ATOM
      1 N           0.3870    1.1840   -2.2180 N.pl3   1  UNL1       -0.3523
      2 C           0.5650    0.8690   -0.8440 C.ar    1  UNL1        0.1098
      3 C           1.1790   -0.3480   -0.4790 C.ar    1  UNL1        0.0550
      4 C           1.7920   -1.2160   -1.5190 C.2     1  UNL1        0.1953
      5 O           2.4680   -0.6920   -2.4010 O.2     1  UNL1       -0.2866
      6 C           1.6060   -2.6900   -1.5030 C.ar    1  UNL1        0.0223
      7 C           0.4350   -3.2790   -1.0100 C.ar    1  UNL1       -0.0509
      8 C           0.2990   -4.6690   -1.0170 C.ar    1  UNL1       -0.0611
      9 C           1.3240   -5.4690   -1.5240 C.ar    1  UNL1       -0.0617
     10 C           2.4820   -4.8840   -2.0330 C.ar    1  UNL1       -0.0611
     11 C           2.6220   -3.4960   -2.0290 C.ar    1  UNL1       -0.0509
     12 C           1.2910   -0.7170    0.8600 C.ar    1  UNL1        0.0160
     13 C           0.7320    0.1000    1.8320 C.ar    1  UNL1        0.1842
     14 N           0.0520    1.2710    1.5150 N.ar    1  UNL1       -0.1688
     15 O          -0.4520    1.9440    2.4740 O.co2   1  UNL1       -0.6193
     16 C          -0.0580    1.6560    0.1670 C.ar    1  UNL1        0.2477
     17 C          -0.8190    2.8850   -0.1350 C.ar    1  UNL1        0.0495
     18 C          -0.3870    4.1390    0.3320 C.ar    1  UNL1       -0.0468
     19 C          -1.1000    5.3040    0.0330 C.ar    1  UNL1       -0.0426
     20 C          -2.2560    5.2290   -0.7390 C.ar    1  UNL1        0.0410
     21 CL         -3.1320    6.6620   -1.1120 Cl      1  UNL1       -0.0835
     22 C          -2.7060    4.0000   -1.2120 C.ar    1  UNL1       -0.0426
     23 C          -1.9920    2.8360   -0.9100 C.ar    1  UNL1       -0.0468
     24 H           0.2930    2.1810   -2.4020 H       1  UNL1        0.1425
     25 H           1.1300    0.7760   -2.7990 H       1  UNL1        0.1425
     26 H          -0.3890   -2.6760   -0.6390 H       1  UNL1        0.0625
     27 H          -0.6100   -5.1300   -0.6380 H       1  UNL1        0.0618
     28 H           1.2140   -6.5520   -1.5330 H       1  UNL1        0.0618
     29 H           3.2740   -5.5080   -2.4400 H       1  UNL1        0.0618
     30 H           3.5250   -3.0440   -2.4370 H       1  UNL1        0.0625
     31 H           1.8140   -1.6220    1.1600 H       1  UNL1        0.0685
     32 H           0.7630   -0.0970    2.8940 H       1  UNL1        0.1390
     33 H           0.5040    4.2140    0.9530 H       1  UNL1        0.0626
     34 H          -0.7520    6.2600    0.4140 H       1  UNL1        0.0632
     35 H          -3.6100    3.9370   -1.8120 H       1  UNL1        0.0632
     36 H          -2.3600    1.8820   -1.2860 H       1  UNL1        0.0626
@<TRIPOS>UNITY_ATOM_ATTR
14 1
charge 1
15 1
charge -1
@<TRIPOS>BOND
     1     1     2    1
     2     1    24    1
     3     1    25    1
     4     2     3   ar
     5     2    16   ar
     6     3     4    1
     7     3    12   ar
     8     4     5    2
     9     4     6    1
    10     6     7   ar
    11     6    11   ar
    12     7     8   ar
    13     7    26    1
    14     8     9   ar
    15     8    27    1
    16     9    10   ar
    17     9    28    1
    18    10    11   ar
    19    10    29    1
    20    11    30    1
    21    12    13   ar
    22    12    31    1
    23    13    14   ar
    24    13    32    1
    25    14    15    1
    26    14    16   ar
    27    16    17    1
    28    17    18   ar
    29    17    23   ar
    30    18    19   ar
    31    18    33    1
    32    19    20   ar
    33    19    34    1
    34    20    21    1
    35    20    22   ar
    36    22    23   ar
    37    22    35    1
    38    23    36    1
@<TRIPOS>MOLECULE
AD3CC00699516-I00-C00
 68 72 0 0 0
SMALL
GASTEIGER

@<TRIPOS>ATOM
      1 C           6.5210   -4.2490    2.1010 C.3     1  UNL1       -0.0397
      2 C           5.9500   -3.1910    1.2030 C.ar    1  UNL1       -0.0503
      3 C           4.6740   -3.3420    0.6480 C.ar    1  UNL1       -0.0568
      4 C           4.1280   -2.3450   -0.1670 C.ar    1  UNL1       -0.0359
      5 C           4.8450   -1.1690   -0.4160 C.ar    1  UNL1        0.0674
      6 N           4.3200   -0.1330   -1.2440 N.ar    1  UNL1       -0.2181
      7 N           5.1750    0.7240   -1.8610 N.ar    1  UNL1       -0.1691
      8 C           4.4280    1.3860   -2.7540 C.ar    1  UNL1        0.0706
      9 C           5.0800    2.3740   -3.7070 C.3     1  UNL1        0.0063
     10 C           4.0690    2.9480   -4.7210 C.3     1  UNL1       -0.0546
     11 C           5.6810    3.5530   -2.9140 C.3     1  UNL1       -0.0546
     12 C           6.2050    1.6830   -4.5060 C.3     1  UNL1       -0.0546
     13 C           3.0620    1.0570   -2.6070 C.ar    1  UNL1        0.0021
     14 C           2.9930    0.1660   -1.5570 C.ar    1  UNL1        0.1299
     15 N           1.8930   -0.3250   -0.8610 N.am    1  UNL1       -0.2538
     16 C           0.5750   -0.0860   -1.2340 C.2     1  UNL1        0.3092
     17 O           0.2360    0.4780   -2.2670 O.2     1  UNL1       -0.2521
     18 N          -0.2940   -0.5940   -0.2780 N.am    1  UNL1       -0.2692
     19 C          -1.7040   -0.6250   -0.3260 C.ar    1  UNL1        0.0349
     20 C          -2.4590   -0.2500   -1.4360 C.ar    1  UNL1       -0.0387
     21 C          -3.8570   -0.3170   -1.3990 C.ar    1  UNL1       -0.0388
     22 C          -4.5310   -0.7470   -0.2510 C.ar    1  UNL1        0.0325
     23 N          -5.9450   -0.8240   -0.2920 N.pl3   1  UNL1       -0.2989
     24 C          -6.8080   -1.0140    0.8100 C.ar    1  UNL1        0.1339
     25 N          -7.5790   -2.1130    0.7270 N.ar    1  UNL1       -0.2200
     26 C          -8.3910   -2.3430    1.7630 C.ar    1  UNL1        0.1187
     27 N          -8.5100   -1.5860    2.8580 N.ar    1  UNL1       -0.2353
     28 C          -7.7630   -0.4790    2.9080 C.ar    1  UNL1        0.0761
     29 C          -7.8630    0.3390    4.0250 C.ar    1  UNL1       -0.0338
     30 C          -7.1300    1.5250    4.1410 C.ar    1  UNL1       -0.0390
     31 C          -6.3060    1.9470    3.1050 C.ar    1  UNL1        0.0253
     32 N          -5.4860    3.0670    3.2610 N.pl3   1  UNL1       -0.3579
     33 C          -6.1510    1.1040    2.0050 C.ar    1  UNL1       -0.0286
     34 C          -6.8770   -0.1120    1.8890 C.ar    1  UNL1        0.0422
     35 C          -3.7710   -1.1510    0.8500 C.ar    1  UNL1       -0.0388
     36 C          -2.3720   -1.0840    0.8150 C.ar    1  UNL1       -0.0387
     37 C           6.1330   -1.0260    0.1210 C.ar    1  UNL1       -0.0359
     38 C           6.6720   -2.0230    0.9380 C.ar    1  UNL1       -0.0568
     39 H           6.1480   -5.2400    1.8230 H       1  UNL1        0.0278
     40 H           7.6120   -4.2800    2.0230 H       1  UNL1        0.0278
     41 H           6.2450   -4.0460    3.1400 H       1  UNL1        0.0278
     42 H           4.1060   -4.2530    0.8280 H       1  UNL1        0.0621
     43 H           3.1750   -2.5500   -0.6460 H       1  UNL1        0.0639
     44 H           3.2630    3.4960   -4.2190 H       1  UNL1        0.0239
     45 H           3.6090    2.1540   -5.3210 H       1  UNL1        0.0239
     46 H           4.5540    3.6450   -5.4150 H       1  UNL1        0.0239
     47 H           6.4530    3.2150   -2.2130 H       1  UNL1        0.0239
     48 H           4.9110    4.0690   -2.3280 H       1  UNL1        0.0239
     49 H           6.1420    4.2880   -3.5830 H       1  UNL1        0.0239
     50 H           6.9980    1.3090   -3.8470 H       1  UNL1        0.0239
     51 H           6.6700    2.3740   -5.2180 H       1  UNL1        0.0239
     52 H           5.8190    0.8270   -5.0720 H       1  UNL1        0.0239
     53 H           2.2270    1.4860   -3.1450 H       1  UNL1        0.0671
     54 H           2.0640   -0.8410   -0.0120 H       1  UNL1        0.1578
     55 H           0.1180   -0.8820    0.5960 H       1  UNL1        0.1564
     56 H          -1.9950    0.0970   -2.3540 H       1  UNL1        0.0637
     57 H          -4.4210   -0.0140   -2.2790 H       1  UNL1        0.0637
     58 H          -6.1930   -1.5840   -0.9280 H       1  UNL1        0.1536
     59 H          -9.0110   -3.2320    1.7120 H       1  UNL1        0.1048
     60 H          -8.5270    0.0450    4.8350 H       1  UNL1        0.0639
     61 H          -7.2200    2.1150    5.0490 H       1  UNL1        0.0637
     62 H          -5.8620    3.7750    3.8840 H       1  UNL1        0.1423
     63 H          -5.1550    3.4630    2.3860 H       1  UNL1        0.1423
     64 H          -5.4650    1.3950    1.2120 H       1  UNL1        0.0644
     65 H          -4.2490   -1.5290    1.7490 H       1  UNL1        0.0637
     66 H          -1.8210   -1.4000    1.6970 H       1  UNL1        0.0637
     67 H           6.7230   -0.1320   -0.0750 H       1  UNL1        0.0639
     68 H           7.6660   -1.8820    1.3590 H       1  UNL1        0.0621
@<TRIPOS>BOND
     1     1     2    1
     2     1    39    1
     3     1    40    1
     4     1    41    1
     5     2     3   ar
     6     2    38   ar
     7     3     4   ar
     8     3    42    1
     9     4     5   ar
    10     4    43    1
    11     5     6    1
    12     5    37   ar
    13     6     7   ar
    14     6    14   ar
    15     7     8   ar
    16     8     9    1
    17     8    13   ar
    18     9    10    1
    19     9    11    1
    20     9    12    1
    21    10    44    1
    22    10    45    1
    23    10    46    1
    24    11    47    1
    25    11    48    1
    26    11    49    1
    27    12    50    1
    28    12    51    1
    29    12    52    1
    30    13    14   ar
    31    13    53    1
    32    14    15    1
    33    15    16   am
    34    15    54    1
    35    16    17    2
    36    16    18   am
    37    18    19    1
    38    18    55    1
    39    19    20   ar
    40    19    36   ar
    41    20    21   ar
    42    20    56    1
    43    21    22   ar
    44    21    57    1
    45    22    23    1
    46    22    35   ar
    47    23    24    1
    48    23    58    1
    49    24    25   ar
    50    24    34   ar
    51    25    26   ar
    52    26    27   ar
    53    26    59    1
    54    27    28   ar
    55    28    29   ar
    56    28    34   ar
    57    29    30   ar
    58    29    60    1
    59    30    31   ar
    60    30    61    1
    61    31    32    1
    62    31    33   ar
    63    32    62    1
    64    32    63    1
    65    33    34   ar
    66    33    64    1
    67    35    36   ar
    68    35    65    1
    69    36    66    1
    70    37    38   ar
    71    37    67    1
    72    38    68    1
@<TRIPOS>MOLECULE
AD3CC00702095-I00-C00
 55 58 0 0 0
SMALL
GASTEIGER

@<TRIPOS>ATOM
      1 C          -3.9670    2.7360   -2.1010 C.3     1  UNL1       -0.0636
      2 C          -3.6270    1.7610   -3.2210 C.3     1  UNL1       -0.0376
      3 C          -2.3230    0.9860   -2.9580 C.3     1  UNL1        0.0189
      4 C          -2.1320   -0.0820   -4.0410 C.3     1  UNL1       -0.0467
      5 N          -1.2050    1.9370   -2.9750 N.pl3   1  UNL1       -0.3265
      6 C          -0.0090    1.4420   -2.4350 C.ar    1  UNL1        0.1195
      7 C           0.0640    0.8920   -1.1600 C.ar    1  UNL1       -0.0126
      8 C           1.2640    0.3310   -0.7240 C.ar    1  UNL1        0.0071
      9 C           1.3690   -0.3540    0.5890 C.ar    1  UNL1        0.0977
     10 N           2.2120    0.2840    1.4590 N.ar    1  UNL1       -0.2430
     11 C           2.2980   -0.3790    2.6550 C.ar    1  UNL1        0.0902
     12 C           3.1290    0.1570    3.6560 C.ar    1  UNL1       -0.0310
     13 C           3.2850   -0.4460    4.9170 C.ar    1  UNL1       -0.0454
     14 C           4.1990    0.1900    5.9200 C.3     1  UNL1       -0.0394
     15 C           2.5970   -1.6380    5.1910 C.ar    1  UNL1       -0.0454
     16 C           2.7190   -2.3380    6.5100 C.3     1  UNL1       -0.0394
     17 C           1.7580   -2.1830    4.2020 C.ar    1  UNL1       -0.0310
     18 C           1.5860   -1.5890    2.9390 C.ar    1  UNL1        0.0902
     19 N           0.7490   -2.2010    2.0430 N.ar    1  UNL1       -0.2430
     20 C           0.6920   -1.5140    0.8600 C.ar    1  UNL1        0.0976
     21 C          -0.1910   -2.1650   -0.1380 C.ar    1  UNL1        0.0026
     22 C           0.3510   -2.8190   -1.2530 C.ar    1  UNL1       -0.0498
     23 C          -0.4850   -3.4190   -2.1950 C.ar    1  UNL1       -0.0258
     24 C          -1.8630   -3.3670   -2.0130 C.ar    1  UNL1        0.1234
     25 F          -2.6700   -3.9390   -2.9200 F       1  UNL1       -0.2055
     26 C          -2.4230   -2.7320   -0.9090 C.ar    1  UNL1       -0.0258
     27 C          -1.5840   -2.1330    0.0290 C.ar    1  UNL1       -0.0498
     28 C           2.3740    0.4110   -1.5580 C.ar    1  UNL1       -0.0342
     29 C           2.2240    1.0230   -2.7880 C.ar    1  UNL1        0.0303
     30 N           1.0600    1.5350   -3.2570 N.ar    1  UNL1       -0.2405
     31 H          -4.9260    3.2240   -2.3050 H       1  UNL1        0.0230
     32 H          -4.0510    2.2150   -1.1420 H       1  UNL1        0.0230
     33 H          -3.2080    3.5180   -2.0050 H       1  UNL1        0.0230
     34 H          -3.5600    2.3130   -4.1670 H       1  UNL1        0.0280
     35 H          -4.4590    1.0520   -3.3220 H       1  UNL1        0.0280
     36 H          -2.4250    0.4900   -1.9860 H       1  UNL1        0.0495
     37 H          -2.0500    0.3700   -5.0360 H       1  UNL1        0.0247
     38 H          -1.2230   -0.6670   -3.8700 H       1  UNL1        0.0247
     39 H          -2.9780   -0.7780   -4.0530 H       1  UNL1        0.0247
     40 H          -0.9320    2.2150   -3.9130 H       1  UNL1        0.1477
     41 H          -0.7890    0.8640   -0.4940 H       1  UNL1        0.0658
     42 H           3.6590    1.0760    3.4220 H       1  UNL1        0.0642
     43 H           3.6760    0.3510    6.8680 H       1  UNL1        0.0278
     44 H           4.5570    1.1670    5.5790 H       1  UNL1        0.0278
     45 H           5.0740   -0.4460    6.0900 H       1  UNL1        0.0278
     46 H           2.1830   -3.2930    6.5130 H       1  UNL1        0.0278
     47 H           3.7680   -2.5550    6.7330 H       1  UNL1        0.0278
     48 H           2.2980   -1.7180    7.3080 H       1  UNL1        0.0278
     49 H           1.2100   -3.1020    4.3970 H       1  UNL1        0.0642
     50 H           1.4320   -2.8430   -1.3590 H       1  UNL1        0.0625
     51 H          -0.0630   -3.9200   -3.0560 H       1  UNL1        0.0646
     52 H          -3.4970   -2.7060   -0.7750 H       1  UNL1        0.0646
     53 H          -1.9810   -1.6340    0.9100 H       1  UNL1        0.0625
     54 H           3.3210    0.0010   -1.2260 H       1  UNL1        0.0639
     55 H           3.0710    1.1120   -3.4560 H       1  UNL1        0.0830
@<TRIPOS>BOND
     1     1     2    1
     2     1    31    1
     3     1    32    1
     4     1    33    1
     5     2     3    1
     6     2    34    1
     7     2    35    1
     8     3     4    1
     9     3     5    1
    10     3    36    1
    11     4    37    1
    12     4    38    1
    13     4    39    1
    14     5     6    1
    15     5    40    1
    16     6     7   ar
    17     6    30   ar
    18     7     8   ar
    19     7    41    1
    20     8     9    1
    21     8    28   ar
    22     9    10   ar
    23     9    20   ar
    24    10    11   ar
    25    11    12   ar
    26    11    18   ar
    27    12    13   ar
    28    12    42    1
    29    13    14    1
    30    13    15   ar
    31    14    43    1
    32    14    44    1
    33    14    45    1
    34    15    16    1
    35    15    17   ar
    36    16    46    1
    37    16    47    1
    38    16    48    1
    39    17    18   ar
    40    17    49    1
    41    18    19   ar
    42    19    20   ar
    43    20    21    1
    44    21    22   ar
    45    21    27   ar
    46    22    23   ar
    47    22    50    1
    48    23    24   ar
    49    23    51    1
    50    24    25    1
    51    24    26   ar
    52    26    27   ar
    53    26    52    1
    54    27    53    1
    55    28    29   ar
    56    28    54    1
    57    29    30   ar
    58    29    55    1
@<TRIPOS>MOLECULE
AD3CC00702116-I00-C01
 46 49 0 0 0
SMALL
GASTEIGER

@<TRIPOS>ATOM
      1 C           0.7140    5.0140    0.8370 C.3     1  UNL1       -0.0469
      2 C           0.9950    3.6990    0.1090 C.3     1  UNL1        0.0163
      3 C           0.8190    3.8860   -1.3990 C.3     1  UNL1       -0.0469
      4 N           2.3640    3.2870    0.4330 N.pl3   1  UNL1       -0.3267
      5 C           2.7310    1.9910    0.0800 C.ar    1  UNL1        0.1195
      6 C           2.0270    0.8760    0.5180 C.ar    1  UNL1       -0.0126
      7 C           2.4160   -0.4080    0.1090 C.ar    1  UNL1        0.0071
      8 C           1.6750   -1.6150    0.5140 C.ar    1  UNL1        0.0977
      9 N           2.4670   -2.6140    0.9980 N.ar    1  UNL1       -0.2430
     10 C           1.8670   -3.7310    1.4410 C.ar    1  UNL1        0.0914
     11 C           2.6410   -4.7620    1.9530 C.ar    1  UNL1       -0.0144
     12 C           2.0550   -5.9360    2.4280 C.ar    1  UNL1        0.0614
     13 CL          3.0970   -7.1660    3.0450 Cl      1  UNL1       -0.0820
     14 C           0.6680   -6.0770    2.3890 C.ar    1  UNL1        0.0614
     15 CL         -0.1380   -7.4940    2.9550 Cl      1  UNL1       -0.0820
     16 C          -0.1160   -5.0420    1.8750 C.ar    1  UNL1       -0.0144
     17 C           0.4630   -3.8740    1.4020 C.ar    1  UNL1        0.0914
     18 N          -0.3230   -2.9030    0.9100 N.ar    1  UNL1       -0.2430
     19 C           0.2810   -1.7720    0.4470 C.ar    1  UNL1        0.0976
     20 C          -0.6560   -0.7900   -0.1280 C.ar    1  UNL1        0.0026
     21 C          -0.5030   -0.3010   -1.4400 C.ar    1  UNL1       -0.0498
     22 C          -1.3900    0.6440   -1.9620 C.ar    1  UNL1       -0.0258
     23 C          -2.4450    1.0990   -1.1820 C.ar    1  UNL1        0.1234
     24 F          -3.2900    2.0110   -1.6810 F       1  UNL1       -0.2055
     25 C          -2.6360    0.6210    0.1070 C.ar    1  UNL1       -0.0258
     26 C          -1.7490   -0.3240    0.6280 C.ar    1  UNL1       -0.0498
     27 C           3.5600   -0.5070   -0.6880 C.ar    1  UNL1       -0.0342
     28 C           4.2230    0.6510   -1.0520 C.ar    1  UNL1        0.0303
     29 N           3.8250    1.8890   -0.6920 N.ar    1  UNL1       -0.2405
     30 H           0.8270    4.8880    1.9200 H       1  UNL1        0.0247
     31 H          -0.3070    5.3580    0.6420 H       1  UNL1        0.0247
     32 H           1.4070    5.8020    0.5220 H       1  UNL1        0.0247
     33 H           0.2660    2.9640    0.4680 H       1  UNL1        0.0492
     34 H           0.9820    2.9470   -1.9380 H       1  UNL1        0.0247
     35 H          -0.1930    4.2320   -1.6310 H       1  UNL1        0.0247
     36 H           1.5290    4.6210   -1.7950 H       1  UNL1        0.0247
     37 H           3.0600    3.8810   -0.0180 H       1  UNL1        0.1477
     38 H           1.1870    1.0110    1.1910 H       1  UNL1        0.0658
     39 H           3.7220   -4.6400    1.9800 H       1  UNL1        0.0654
     40 H          -1.1980   -5.1420    1.8390 H       1  UNL1        0.0654
     41 H           0.3110   -0.6550   -2.0700 H       1  UNL1        0.0625
     42 H          -1.2650    1.0240   -2.9720 H       1  UNL1        0.0646
     43 H          -3.4730    0.9800    0.6970 H       1  UNL1        0.0646
     44 H          -1.9100   -0.7010    1.6380 H       1  UNL1        0.0625
     45 H           3.9360   -1.4720   -1.0140 H       1  UNL1        0.0639
     46 H           5.1200    0.6130   -1.6630 H       1  UNL1        0.0830
@<TRIPOS>BOND
     1     1     2    1
     2     1    30    1
     3     1    31    1
     4     1    32    1
     5     2     3    1
     6     2     4    1
     7     2    33    1
     8     3    34    1
     9     3    35    1
    10     3    36    1
    11     4     5    1
    12     4    37    1
    13     5     6   ar
    14     5    29   ar
    15     6     7   ar
    16     6    38    1
    17     7     8    1
    18     7    27   ar
    19     8     9   ar
    20     8    19   ar
    21     9    10   ar
    22    10    11   ar
    23    10    17   ar
    24    11    12   ar
    25    11    39    1
    26    12    13    1
    27    12    14   ar
    28    14    15    1
    29    14    16   ar
    30    16    17   ar
    31    16    40    1
    32    17    18   ar
    33    18    19   ar
    34    19    20    1
    35    20    21   ar
    36    20    26   ar
    37    21    22   ar
    38    21    41    1
    39    22    23   ar
    40    22    42    1
    41    23    24    1
    42    23    25   ar
    43    25    26   ar
    44    25    43    1
    45    26    44    1
    46    27    28   ar
    47    27    45    1
    48    28    29   ar
    49    28    46    1
@<TRIPOS>MOLECULE
AD3CC00709293-I00-C00
 37 39 0 0 0
SMALL
GASTEIGER

@<TRIPOS>ATOM
      1 C           2.4260   -4.3350    1.8470 C.3     1  UNL1       -0.0557
      2 C           1.1250   -4.4790    1.0580 C.3     1  UNL1        0.0138
      3 C           0.6560   -5.9350    1.0660 C.3     1  UNL1       -0.0557
      4 C           1.3060   -3.9770   -0.3420 C.ar    1  UNL1        0.1403
      5 N           1.6930   -4.6880   -1.3860 N.ar    1  UNL1       -0.1334
      6 N           1.7470   -3.8630   -2.4830 N.ar    1  UNL1       -0.1294
      7 C           1.3990   -2.6580   -2.0950 C.ar    1  UNL1        0.1611
      8 C           1.2970   -1.4200   -2.7850 C.ar    1  UNL1       -0.0163
      9 C           0.9030   -0.3170   -2.1180 C.ar    1  UNL1       -0.0447
     10 C           0.5630   -0.3690   -0.6960 C.ar    1  UNL1        0.0537
     11 C           0.1310    0.8300    0.0900 C.2     1  UNL1        0.2497
     12 O           0.5290    0.9830    1.2380 O.2     1  UNL1       -0.2698
     13 N          -0.7540    1.6370   -0.5980 N.am    1  UNL1       -0.2813
     14 C          -1.3300    2.8450   -0.1500 C.ar    1  UNL1        0.0391
     15 C          -1.0210    3.4550    1.0680 C.ar    1  UNL1       -0.0050
     16 C          -1.6400    4.6540    1.4240 C.ar    1  UNL1        0.1279
     17 F          -1.3340    5.2280    2.5950 F       1  UNL1       -0.2053
     18 C          -2.5630    5.2660    0.5910 C.ar    1  UNL1        0.0089
     19 C          -2.8640    4.6600   -0.6170 C.ar    1  UNL1        0.1279
     20 F          -3.7520    5.2330   -1.4400 F       1  UNL1       -0.2053
     21 C          -2.2590    3.4630   -0.9950 C.ar    1  UNL1       -0.0050
     22 C           0.6940   -1.5380   -0.0380 C.ar    1  UNL1        0.0250
     23 N           1.1030   -2.6710   -0.7390 N.ar    1  UNL1       -0.2854
     24 H           3.2370   -4.9170    1.3930 H       1  UNL1        0.0236
     25 H           2.2970   -4.6820    2.8780 H       1  UNL1        0.0236
     26 H           2.7520   -3.2900    1.8850 H       1  UNL1        0.0236
     27 H           0.3480   -3.8890    1.5600 H       1  UNL1        0.0374
     28 H           1.3980   -6.6020    0.6130 H       1  UNL1        0.0236
     29 H           0.4770   -6.2790    2.0910 H       1  UNL1        0.0236
     30 H          -0.2790   -6.0480    0.5060 H       1  UNL1        0.0236
     31 H           1.5660   -1.3890   -3.8350 H       1  UNL1        0.0655
     32 H           0.8700    0.6410   -2.6300 H       1  UNL1        0.0627
     33 H          -1.0680    1.3070   -1.5020 H       1  UNL1        0.1551
     34 H          -0.3050    3.0360    1.7670 H       1  UNL1        0.0665
     35 H          -3.0360    6.1970    0.8790 H       1  UNL1        0.0675
     36 H          -2.5330    3.0320   -1.9540 H       1  UNL1        0.0665
     37 H           0.4920   -1.6430    1.0210 H       1  UNL1        0.0821
@<TRIPOS>BOND
     1     1     2    1
     2     1    24    1
     3     1    25    1
     4     1    26    1
     5     2     3    1
     6     2     4    1
     7     2    27    1
     8     3    28    1
     9     3    29    1
    10     3    30    1
    11     4     5   ar
    12     4    23   ar
    13     5     6   ar
    14     6     7   ar
    15     7     8   ar
    16     7    23   ar
    17     8     9   ar
    18     8    31    1
    19     9    10   ar
    20     9    32    1
    21    10    11    1
    22    10    22   ar
    23    11    12    2
    24    11    13   am
    25    13    14    1
    26    13    33    1
    27    14    15   ar
    28    14    21   ar
    29    15    16   ar
    30    15    34    1
    31    16    17    1
    32    16    18   ar
    33    18    19   ar
    34    18    35    1
    35    19    20    1
    36    19    21   ar
    37    21    36    1
    38    22    23   ar
    39    22    37    1
@<TRIPOS>MOLECULE
AD3CC00711355-I00-C00
 45 48 0 0 0
SMALL
GASTEIGER

@<TRIPOS>ATOM
      1 C           1.4570    4.7540    1.2360 C.3     1  UNL1        0.0004
      2 N           0.8360    3.9740    0.1950 N.am    1  UNL1       -0.3144
      3 C           0.5580    2.6380    0.3910 C.2     1  UNL1        0.2439
      4 O           0.7330    2.0490    1.4530 O.2     1  UNL1       -0.2702
      5 C           0.0430    1.8940   -0.7880 C.ar    1  UNL1        0.0374
      6 C          -0.7610    2.4990   -1.7540 C.ar    1  UNL1       -0.0493
      7 C          -1.2480    1.7430   -2.8230 C.ar    1  UNL1       -0.0575
      8 C          -0.9610    0.3700   -2.9280 C.ar    1  UNL1       -0.0397
      9 C          -1.5110   -0.3980   -4.1030 C.3     1  UNL1       -0.0390
     10 C          -0.1600   -0.2480   -1.9450 C.ar    1  UNL1        0.0232
     11 C           0.1640   -1.6770   -1.9990 C.ar    1  UNL1        0.1688
     12 N           0.6540   -2.3240   -3.0440 N.ar    1  UNL1       -0.1285
     13 N           0.8750   -3.6360   -2.6910 N.ar    1  UNL1       -0.1291
     14 C           0.5040   -3.7810   -1.4400 C.ar    1  UNL1        0.1614
     15 C           0.5180   -4.8910   -0.5530 C.ar    1  UNL1       -0.0159
     16 C           0.0540   -4.7440    0.7040 C.ar    1  UNL1       -0.0431
     17 C          -0.4740   -3.4690    1.1800 C.ar    1  UNL1        0.0295
     18 S          -1.0380   -3.3260    2.8110 S.3     1  UNL1       -0.0851
     19 C           0.3600   -2.4410    3.4870 C.ar    1  UNL1        0.0481
     20 C           0.3500   -1.0400    3.5270 C.ar    1  UNL1       -0.0425
     21 C           1.4530   -0.3450    4.0280 C.ar    1  UNL1       -0.0252
     22 C           2.5550   -1.0500    4.5030 C.ar    1  UNL1        0.1262
     23 F           3.6090   -0.3800    4.9850 F       1  UNL1       -0.2054
     24 C           2.5790   -2.4380    4.4840 C.ar    1  UNL1        0.0099
     25 C           1.4820   -3.1240    3.9750 C.ar    1  UNL1        0.1398
     26 F           1.5250   -4.4660    3.9490 F       1  UNL1       -0.2042
     27 C          -0.5030   -2.4260    0.3300 C.ar    1  UNL1        0.0269
     28 N           0.0090   -2.5780   -0.9580 N.ar    1  UNL1       -0.2814
     29 C           0.3480    0.5320   -0.8910 C.ar    1  UNL1       -0.0387
     30 H           1.3280    5.8130    1.0020 H       1  UNL1        0.0426
     31 H           1.0000    4.5270    2.2040 H       1  UNL1        0.0426
     32 H           2.5220    4.5090    1.2700 H       1  UNL1        0.0426
     33 H           0.9040    4.3190   -0.7530 H       1  UNL1        0.1487
     34 H          -1.0400    3.5470   -1.6780 H       1  UNL1        0.0625
     35 H          -1.8700    2.2300   -3.5720 H       1  UNL1        0.0621
     36 H          -2.0160   -1.3100   -3.7680 H       1  UNL1        0.0278
     37 H          -2.2520    0.1920   -4.6530 H       1  UNL1        0.0278
     38 H          -0.7060   -0.6550   -4.7980 H       1  UNL1        0.0278
     39 H           0.9090   -5.8380   -0.9080 H       1  UNL1        0.0655
     40 H           0.0680   -5.5870    1.3910 H       1  UNL1        0.0630
     41 H          -0.5030   -0.4750    3.1570 H       1  UNL1        0.0630
     42 H           1.4590    0.7420    4.0400 H       1  UNL1        0.0646
     43 H           3.4420   -2.9780    4.8560 H       1  UNL1        0.0675
     44 H          -0.8950   -1.4550    0.6020 H       1  UNL1        0.0825
     45 H           0.9970    0.0850   -0.1390 H       1  UNL1        0.0632
@<TRIPOS>BOND
     1     1     2    1
     2     1    30    1
     3     1    31    1
     4     1    32    1
     5     2     3   am
     6     2    33    1
     7     3     4    2
     8     3     5    1
     9     5     6   ar
    10     5    29   ar
    11     6     7   ar
    12     6    34    1
    13     7     8   ar
    14     7    35    1
    15     8     9    1
    16     8    10   ar
    17     9    36    1
    18     9    37    1
    19     9    38    1
    20    10    11    1
    21    10    29   ar
    22    11    12   ar
    23    11    28   ar
    24    12    13   ar
    25    13    14   ar
    26    14    15   ar
    27    14    28   ar
    28    15    16   ar
    29    15    39    1
    30    16    17   ar
    31    16    40    1
    32    17    18    1
    33    17    27   ar
    34    18    19    1
    35    19    20   ar
    36    19    25   ar
    37    20    21   ar
    38    20    41    1
    39    21    22   ar
    40    21    42    1
    41    22    23    1
    42    22    24   ar
    43    24    25   ar
    44    24    43    1
    45    25    26    1
    46    27    28   ar
    47    27    44    1
    48    29    45    1
@<TRIPOS>MOLECULE
AD3CC00713929-I00-C00
 60 64 0 0 0
SMALL
GASTEIGER

@<TRIPOS>ATOM
      1 C           3.6080   -5.8570    1.1090 C.3     1  UNL1       -0.0546
      2 C           2.1970   -5.4740    1.6020 C.3     1  UNL1        0.0063
      3 C           2.1660   -5.6740    3.1330 C.3     1  UNL1       -0.0546
      4 C           1.1690   -6.4350    0.9720 C.3     1  UNL1       -0.0546
      5 C           1.8730   -4.0430    1.2040 C.ar    1  UNL1        0.0706
      6 C           1.9500   -3.4690   -0.0860 C.ar    1  UNL1        0.0020
      7 C           1.4800   -2.1790    0.0430 C.ar    1  UNL1        0.1290
      8 N           1.1480   -1.2440   -0.9300 N.am    1  UNL1       -0.2663
      9 C           1.3890   -1.4360   -2.2790 C.2     1  UNL1        0.2494
     10 O           2.0460   -2.3340   -2.7900 O.2     1  UNL1       -0.2698
     11 C           0.8030   -0.3920   -3.1610 C.ar    1  UNL1        0.0405
     12 C           1.5390    0.0520   -4.2660 C.ar    1  UNL1       -0.0494
     13 C           1.0130    1.0380   -5.1030 C.ar    1  UNL1       -0.0576
     14 C          -0.2450    1.5800   -4.8360 C.ar    1  UNL1       -0.0193
     15 C          -0.9810    1.1370   -3.7360 C.ar    1  UNL1        0.1293
     16 O          -2.2220    1.7120   -3.5590 O.3     1  UNL1       -0.4539
     17 C          -2.6700    1.8640   -2.2740 C.ar    1  UNL1        0.1537
     18 C          -3.9140    1.3230   -1.9340 C.ar    1  UNL1       -0.0171
     19 C          -4.4230    1.4460   -0.6220 C.ar    1  UNL1       -0.0562
     20 C          -3.7050    2.1230    0.3710 C.ar    1  UNL1       -0.0360
     21 C          -2.4980    2.6690    0.0010 C.ar    1  UNL1        0.0704
     22 N          -1.5870    3.3960    0.7580 N.ar    1  UNL1       -0.3060
     23 C          -0.5040    3.7520   -0.0580 C.ar    1  UNL1        0.3251
     24 O           0.4810    4.3860    0.2750 O.2     1  UNL1       -0.2468
     25 N          -0.7670    3.2240   -1.3270 N.ar    1  UNL1       -0.3032
     26 C          -1.9900    2.5550   -1.2920 C.ar    1  UNL1        0.1096
     27 C          -0.4720    0.1290   -2.9120 C.ar    1  UNL1       -0.0072
     28 N           1.3170   -1.9840    1.4170 N.ar    1  UNL1       -0.2181
     29 C           1.0990   -0.7760    2.1430 C.ar    1  UNL1        0.0674
     30 C           1.4880    0.4690    1.6320 C.ar    1  UNL1       -0.0362
     31 C           1.2790    1.6310    2.3820 C.ar    1  UNL1       -0.0598
     32 C           0.6890    1.5580    3.6420 C.ar    1  UNL1       -0.0616
     33 C           0.3240    0.3210    4.1680 C.ar    1  UNL1       -0.0598
     34 C           0.5370   -0.8440    3.4280 C.ar    1  UNL1       -0.0362
     35 N           1.3970   -3.1620    2.0910 N.ar    1  UNL1       -0.1691
     36 H           4.3670   -5.1820    1.5200 H       1  UNL1        0.0239
     37 H           3.6820   -5.8090    0.0160 H       1  UNL1        0.0239
     38 H           3.8700   -6.8780    1.4090 H       1  UNL1        0.0239
     39 H           1.1730   -5.4620    3.5470 H       1  UNL1        0.0239
     40 H           2.8830   -5.0140    3.6360 H       1  UNL1        0.0239
     41 H           2.4200   -6.7050    3.4040 H       1  UNL1        0.0239
     42 H           0.1510   -6.1940    1.2990 H       1  UNL1        0.0239
     43 H           1.3740   -7.4750    1.2500 H       1  UNL1        0.0239
     44 H           1.1830   -6.3770   -0.1230 H       1  UNL1        0.0239
     45 H           2.2290   -3.9700   -1.0020 H       1  UNL1        0.0671
     46 H           0.6660   -0.4040   -0.6330 H       1  UNL1        0.1566
     47 H           2.5190   -0.3720   -4.4760 H       1  UNL1        0.0625
     48 H           1.5830    1.3790   -5.9640 H       1  UNL1        0.0619
     49 H          -0.6530    2.3460   -5.4920 H       1  UNL1        0.0654
     50 H          -4.4950    0.7910   -2.6850 H       1  UNL1        0.0655
     51 H          -5.3900    1.0060   -0.3820 H       1  UNL1        0.0619
     52 H          -4.0920    2.2180    1.3780 H       1  UNL1        0.0639
     53 H          -1.6600    3.6400    1.7320 H       1  UNL1        0.1704
     54 H          -0.1640    3.3360   -2.1260 H       1  UNL1        0.1706
     55 H          -1.0740   -0.2680   -2.1000 H       1  UNL1        0.0662
     56 H           2.0220    0.5680    0.6910 H       1  UNL1        0.0639
     57 H           1.6010    2.5950    1.9900 H       1  UNL1        0.0618
     58 H           0.5400    2.4640    4.2240 H       1  UNL1        0.0618
     59 H          -0.1160    0.2590    5.1600 H       1  UNL1        0.0618
     60 H           0.2530   -1.8010    3.8620 H       1  UNL1        0.0639
@<TRIPOS>BOND
     1     2     1    1
     2     1    36    1
     3     1    37    1
     4     1    38    1
     5     2     3    1
     6     2     4    1
     7     2     5    1
     8     3    39    1
     9     3    40    1
    10     3    41    1
    11     4    42    1
    12     4    43    1
    13     4    44    1
    14     5     6   ar
    15     5    35   ar
    16     6     7   ar
    17     6    45    1
    18     7     8    1
    19     7    28   ar
    20     8     9   am
    21     8    46    1
    22     9    10    2
    23     9    11    1
    24    11    12   ar
    25    11    27   ar
    26    12    13   ar
    27    12    47    1
    28    13    14   ar
    29    13    48    1
    30    14    15   ar
    31    14    49    1
    32    15    16    1
    33    15    27   ar
    34    16    17    1
    35    17    18   ar
    36    17    26   ar
    37    18    19   ar
    38    18    50    1
    39    19    20   ar
    40    19    51    1
    41    20    21   ar
    42    20    52    1
    43    21    22   ar
    44    21    26   ar
    45    22    23   ar
    46    22    53    1
    47    23    24    2
    48    23    25   ar
    49    25    26   ar
    50    25    54    1
    51    27    55    1
    52    28    29    1
    53    28    35   ar
    54    29    30   ar
    55    29    34   ar
    56    30    31   ar
    57    30    56    1
    58    31    32   ar
    59    31    57    1
    60    32    33   ar
    61    32    58    1
    62    33    34   ar
    63    33    59    1
    64    34    60    1
@<TRIPOS>MOLECULE
AD3CC00714947-I00-C00
 62 66 0 0 0
SMALL
GASTEIGER

@<TRIPOS>ATOM
      1 C           1.2470    2.6620    8.6500 C.3     1  UNL1       -0.0370
      2 C           0.6810    2.6430    7.2630 C.ar    1  UNL1       -0.0152
      3 C           0.2310    1.4530    6.6830 C.ar    1  UNL1       -0.0555
      4 C          -0.3150    1.4580    5.3940 C.ar    1  UNL1       -0.0521
      5 C          -0.4260    2.6480    4.6650 C.ar    1  UNL1        0.0033
      6 C          -1.0190    2.6550    3.3310 C.ar    1  UNL1        0.0789
      7 N          -2.0410    3.5140    2.9930 N.ar    1  UNL1       -0.3341
      8 C          -2.4160    3.2830    1.6930 C.ar    1  UNL1        0.2133
      9 C          -3.5190    4.0740    1.0670 C.3     1  UNL1        0.4504
     10 F          -3.1040    4.7670   -0.0220 F       1  UNL1       -0.1632
     11 F          -4.0230    4.9890    1.9410 F       1  UNL1       -0.1632
     12 F          -4.5590    3.2940    0.6810 F       1  UNL1       -0.1632
     13 N          -1.6770    2.3180    1.1730 N.ar    1  UNL1       -0.2188
     14 C          -0.7980    1.9120    2.1780 C.ar    1  UNL1        0.1517
     15 C           0.1950    0.8510    1.9360 C.2     1  UNL1        0.2687
     16 O           0.9920    0.4780    2.7880 O.2     1  UNL1       -0.2681
     17 N           0.0830    0.3640    0.6480 N.am    1  UNL1       -0.2801
     18 C           0.8350   -0.6440    0.0210 C.ar    1  UNL1        0.0355
     19 C           1.8640   -1.3440    0.6400 C.ar    1  UNL1       -0.0401
     20 C           2.5590   -2.3350   -0.0570 C.ar    1  UNL1       -0.0553
     21 C           2.2390   -2.6410   -1.3890 C.ar    1  UNL1       -0.0292
     22 C           3.0340   -3.7040   -2.1000 C.3     1  UNL1       -0.0380
     23 C           1.1900   -1.9500   -2.0280 C.ar    1  UNL1        0.0360
     24 N           0.8760   -2.2260   -3.3750 N.pl3   1  UNL1       -0.3142
     25 C           0.3500   -1.4210   -4.3980 C.ar    1  UNL1        0.0322
     26 C           0.4820   -0.0260   -4.4120 C.ar    1  UNL1       -0.0385
     27 C          -0.0900    0.7460   -5.4310 C.ar    1  UNL1       -0.0338
     28 C          -0.8130    0.1430   -6.4570 C.ar    1  UNL1        0.0779
     29 N          -1.3740    0.9470   -7.4600 N.ar    1  UNL1       -0.2370
     30 C          -2.0400    0.3590   -8.3940 C.ar    1  UNL1        0.0990
     31 N          -2.2420   -0.9970   -8.4830 N.ar    1  UNL1       -0.3019
     32 C          -3.0060   -1.5570   -9.5780 C.3     1  UNL1        0.0161
     33 C          -1.7190   -1.8680   -7.5380 C.ar    1  UNL1        0.2614
     34 O          -1.8620   -3.0870   -7.5760 O.2     1  UNL1       -0.2670
     35 C          -0.9500   -1.2440   -6.4450 C.ar    1  UNL1        0.0666
     36 C          -0.3800   -2.0230   -5.4300 C.ar    1  UNL1       -0.0262
     37 C           0.5110   -0.9520   -1.3080 C.ar    1  UNL1       -0.0190
     38 C           0.0140    3.8390    5.2520 C.ar    1  UNL1       -0.0170
     39 C           0.5560    3.8270    6.5350 C.ar    1  UNL1        0.1269
     40 F           0.9590    4.9870    7.0740 F       1  UNL1       -0.2052
     41 H           2.1260    3.3140    8.6990 H       1  UNL1        0.0278
     42 H           0.4940    3.0230    9.3570 H       1  UNL1        0.0278
     43 H           1.5660    1.6620    8.9620 H       1  UNL1        0.0278
     44 H           0.3070    0.5110    7.2220 H       1  UNL1        0.0621
     45 H          -0.6480    0.5140    4.9640 H       1  UNL1        0.0624
     46 H          -2.4680    4.1940    3.6100 H       1  UNL1        0.1673
     47 H          -0.6490    0.8160    0.1030 H       1  UNL1        0.1552
     48 H           2.1560   -1.1450    1.6670 H       1  UNL1        0.0636
     49 H           3.3630   -2.8620    0.4520 H       1  UNL1        0.0621
     50 H           2.3970   -4.5660   -2.3220 H       1  UNL1        0.0278
     51 H           3.4550   -3.3090   -3.0300 H       1  UNL1        0.0278
     52 H           3.8710   -4.0570   -1.4890 H       1  UNL1        0.0278
     53 H           1.0220   -3.1940   -3.6390 H       1  UNL1        0.1522
     54 H           1.0620    0.4780   -3.6430 H       1  UNL1        0.0637
     55 H           0.0340    1.8260   -5.4250 H       1  UNL1        0.0639
     56 H          -2.4980    0.9510   -9.2020 H       1  UNL1        0.1030
     57 H          -3.8560   -2.1140   -9.1720 H       1  UNL1        0.0457
     58 H          -3.3720   -0.7770  -10.2520 H       1  UNL1        0.0457
     59 H          -2.3710   -2.2510  -10.1370 H       1  UNL1        0.0457
     60 H          -0.5200   -3.1020   -5.4450 H       1  UNL1        0.0644
     61 H          -0.3130   -0.4280   -1.7860 H       1  UNL1        0.0655
     62 H          -0.0390    4.7860    4.7230 H       1  UNL1        0.0653
@<TRIPOS>BOND
     1     1     2    1
     2     1    41    1
     3     1    42    1
     4     1    43    1
     5     2     3   ar
     6     2    39   ar
     7     3     4   ar
     8     3    44    1
     9     4     5   ar
    10     4    45    1
    11     5     6    1
    12     5    38   ar
    13     6     7   ar
    14     6    14   ar
    15     7     8   ar
    16     7    46    1
    17     8     9    1
    18     8    13   ar
    19     9    10    1
    20     9    11    1
    21     9    12    1
    22    13    14   ar
    23    14    15    1
    24    15    16    2
    25    15    17   am
    26    17    18    1
    27    17    47    1
    28    18    19   ar
    29    18    37   ar
    30    19    20   ar
    31    19    48    1
    32    20    21   ar
    33    20    49    1
    34    21    22    1
    35    21    23   ar
    36    22    50    1
    37    22    51    1
    38    22    52    1
    39    23    24    1
    40    23    37   ar
    41    24    25    1
    42    24    53    1
    43    25    26   ar
    44    25    36   ar
    45    26    27   ar
    46    26    54    1
    47    27    28   ar
    48    27    55    1
    49    28    29   ar
    50    28    35   ar
    51    29    30   ar
    52    30    31   ar
    53    30    56    1
    54    31    32    1
    55    31    33   ar
    56    32    57    1
    57    32    58    1
    58    32    59    1
    59    33    34    2
    60    33    35   ar
    61    35    36   ar
    62    36    60    1
    63    37    61    1
    64    38    39   ar
    65    38    62    1
    66    39    40    1
@<TRIPOS>MOLECULE
AD3CC00714981-I00-C00
 66 71 0 0 0
SMALL
GASTEIGER

@<TRIPOS>ATOM
      1 C           2.8480    4.6400    2.0520 C.3     1  UNL1       -0.0380
      2 C           1.8140    3.7030    1.4870 C.ar    1  UNL1       -0.0292
      3 C           0.4560    3.9750    1.7170 C.ar    1  UNL1       -0.0553
      4 C          -0.5410    3.1270    1.2280 C.ar    1  UNL1       -0.0401
      5 C          -0.1980    1.9940    0.5000 C.ar    1  UNL1        0.0355
      6 N          -1.1330    1.0910   -0.0320 N.am    1  UNL1       -0.2801
      7 C          -2.5120    1.1280    0.0390 C.2     1  UNL1        0.2687
      8 O          -3.1890    1.9800    0.6000 O.2     1  UNL1       -0.2681
      9 C          -3.0920   -0.0250   -0.6680 C.ar    1  UNL1        0.1518
     10 N          -2.2710   -0.9730   -1.2790 N.ar    1  UNL1       -0.2225
     11 C          -3.0690   -1.8680   -1.8340 C.ar    1  UNL1        0.1395
     12 C          -2.6400   -3.0590   -2.5780 C.ar    1  UNL1        0.0173
     13 C          -1.2690   -3.3450   -2.6770 C.ar    1  UNL1       -0.0511
     14 C          -0.8140   -4.4690   -3.3720 C.ar    1  UNL1       -0.0611
     15 C          -1.7260   -5.3250   -3.9820 C.ar    1  UNL1       -0.0617
     16 C          -3.0900   -5.0560   -3.8990 C.ar    1  UNL1       -0.0611
     17 C          -3.5450   -3.9300   -3.2020 C.ar    1  UNL1       -0.0511
     18 N          -4.3770   -1.5190   -1.5990 N.ar    1  UNL1       -0.3373
     19 C          -4.4240   -0.3560   -0.8630 C.ar    1  UNL1        0.0788
     20 C          -5.6870    0.2440   -0.4480 C.ar    1  UNL1        0.0006
     21 C          -6.6950    0.4950   -1.3900 C.ar    1  UNL1       -0.0526
     22 C          -7.9170    1.0430   -0.9930 C.ar    1  UNL1       -0.0611
     23 C          -8.1430    1.3450    0.3480 C.ar    1  UNL1       -0.0617
     24 C          -7.1480    1.1010    1.2920 C.ar    1  UNL1       -0.0611
     25 C          -5.9260    0.5520    0.8960 C.ar    1  UNL1       -0.0526
     26 C           1.1570    1.7220    0.2670 C.ar    1  UNL1       -0.0190
     27 C           2.1770    2.5650    0.7390 C.ar    1  UNL1        0.0360
     28 N           3.5400    2.2670    0.5230 N.pl3   1  UNL1       -0.3142
     29 C           4.1990    1.0510    0.2750 C.ar    1  UNL1        0.0322
     30 C           3.7350   -0.1740    0.7710 C.ar    1  UNL1       -0.0385
     31 C           4.3950   -1.3730    0.4750 C.ar    1  UNL1       -0.0338
     32 C           5.5330   -1.3750   -0.3300 C.ar    1  UNL1        0.0779
     33 N           6.1660   -2.5950   -0.6090 N.ar    1  UNL1       -0.2370
     34 C           7.2150   -2.5640   -1.3590 C.ar    1  UNL1        0.0990
     35 N           7.7600   -1.4280   -1.9060 N.ar    1  UNL1       -0.3019
     36 C           8.9430   -1.5050   -2.7360 C.3     1  UNL1        0.0161
     37 C           7.2010   -0.1780   -1.6780 C.ar    1  UNL1        0.2614
     38 O           7.6520    0.8680   -2.1360 O.2     1  UNL1       -0.2670
     39 C           5.9970   -0.1580   -0.8260 C.ar    1  UNL1        0.0666
     40 C           5.3430    1.0460   -0.5320 C.ar    1  UNL1       -0.0262
     41 H           3.3790    5.1490    1.2410 H       1  UNL1        0.0278
     42 H           2.3930    5.4080    2.6860 H       1  UNL1        0.0278
     43 H           3.5650    4.0900    2.6700 H       1  UNL1        0.0278
     44 H           0.1590    4.8530    2.2870 H       1  UNL1        0.0621
     45 H          -1.5750    3.3830    1.4360 H       1  UNL1        0.0636
     46 H          -0.7790    0.2920   -0.5540 H       1  UNL1        0.1552
     47 H          -0.5410   -2.6870   -2.2060 H       1  UNL1        0.0625
     48 H           0.2520   -4.6720   -3.4340 H       1  UNL1        0.0618
     49 H          -1.3740   -6.1990   -4.5240 H       1  UNL1        0.0618
     50 H          -3.8030   -5.7230   -4.3770 H       1  UNL1        0.0618
     51 H          -4.6170   -3.7580   -3.1670 H       1  UNL1        0.0625
     52 H          -5.1860   -2.0460   -1.8890 H       1  UNL1        0.1674
     53 H          -6.5320    0.2870   -2.4440 H       1  UNL1        0.0624
     54 H          -8.6880    1.2450   -1.7320 H       1  UNL1        0.0618
     55 H          -9.0900    1.7790    0.6580 H       1  UNL1        0.0618
     56 H          -7.3150    1.3450    2.3380 H       1  UNL1        0.0618
     57 H          -5.1600    0.3760    1.6470 H       1  UNL1        0.0624
     58 H           1.4240    0.8530   -0.3290 H       1  UNL1        0.0655
     59 H           4.1160    3.0900    0.3880 H       1  UNL1        0.1522
     60 H           2.8650   -0.2060    1.4220 H       1  UNL1        0.0637
     61 H           4.0210   -2.3100    0.8790 H       1  UNL1        0.0639
     62 H           7.7450   -3.4980   -1.6050 H       1  UNL1        0.1030
     63 H           8.7160   -1.0820   -3.7200 H       1  UNL1        0.0457
     64 H           9.7390   -0.9090   -2.2780 H       1  UNL1        0.0457
     65 H           9.2840   -2.5370   -2.8540 H       1  UNL1        0.0457
     66 H           5.7250    1.9750   -0.9480 H       1  UNL1        0.0644
@<TRIPOS>BOND
     1     1     2    1
     2     1    41    1
     3     1    42    1
     4     1    43    1
     5     2     3   ar
     6     2    27   ar
     7     3     4   ar
     8     3    44    1
     9     4     5   ar
    10     4    45    1
    11     5     6    1
    12     5    26   ar
    13     6     7   am
    14     6    46    1
    15     7     8    2
    16     7     9    1
    17     9    10   ar
    18     9    19   ar
    19    10    11   ar
    20    11    12    1
    21    11    18   ar
    22    12    13   ar
    23    12    17   ar
    24    13    14   ar
    25    13    47    1
    26    14    15   ar
    27    14    48    1
    28    15    16   ar
    29    15    49    1
    30    16    17   ar
    31    16    50    1
    32    17    51    1
    33    18    19   ar
    34    18    52    1
    35    19    20    1
    36    20    21   ar
    37    20    25   ar
    38    21    22   ar
    39    21    53    1
    40    22    23   ar
    41    22    54    1
    42    23    24   ar
    43    23    55    1
    44    24    25   ar
    45    24    56    1
    46    25    57    1
    47    26    27   ar
    48    26    58    1
    49    27    28    1
    50    28    29    1
    51    28    59    1
    52    29    30   ar
    53    29    40   ar
    54    30    31   ar
    55    30    60    1
    56    31    32   ar
    57    31    61    1
    58    32    33   ar
    59    32    39   ar
    60    33    34   ar
    61    34    35   ar
    62    34    62    1
    63    35    36    1
    64    35    37   ar
    65    36    63    1
    66    36    64    1
    67    36    65    1
    68    37    38    2
    69    37    39   ar
    70    39    40   ar
    71    40    66    1
@<TRIPOS>MOLECULE
AD3CC00716367-I00-C01
 60 63 0 0 0
SMALL
GASTEIGER

@<TRIPOS>ATOM
      1 C           4.1910    1.5170    5.5120 C.3     1  UNL1        0.0032
      2 N           5.0860    0.7870    4.6300 N.am    1  UNL1       -0.3009
      3 C           6.3460    0.3440    5.1950 C.3     1  UNL1        0.0032
      4 C           4.6580    0.2030    3.4300 C.2     1  UNL1        0.2881
      5 O           5.3270   -0.5770    2.7580 O.2     1  UNL1       -0.2664
      6 C           3.2440    0.5210    2.9600 C.2     1  UNL1        0.2677
      7 O           2.3170   -0.0780    3.5060 O.2     1  UNL1       -0.2800
      8 C           3.0420    1.5170    1.9080 C.ar    1  UNL1        0.1450
      9 N           4.0470    2.2740    1.4350 N.ar    1  UNL1       -0.1668
     10 N           3.4790    3.0410    0.4890 N.ar    1  UNL1       -0.2660
     11 C           4.2950    3.9760   -0.2510 C.3     1  UNL1        0.0309
     12 C           2.1300    2.8430    0.3440 C.ar    1  UNL1        0.0707
     13 C           1.1750    3.4360   -0.4980 C.ar    1  UNL1       -0.0170
     14 C          -0.1510    2.9990   -0.3890 C.ar    1  UNL1        0.0551
     15 CL         -1.3180    3.7160   -1.4430 Cl      1  UNL1       -0.0827
     16 C          -0.4920    2.0030    0.5280 C.ar    1  UNL1        0.0559
     17 C          -1.8840    1.5550    0.6840 C.2     1  UNL1        0.2480
     18 O          -2.5930    2.1970    1.4540 O.2     1  UNL1       -0.2699
     19 N          -2.3010    0.4140   -0.0100 N.am    1  UNL1       -0.2975
     20 C          -1.5570   -0.1370   -1.1460 C.3     1  UNL1        0.0152
     21 C          -1.8410   -1.6200   -1.3600 C.3     1  UNL1       -0.0340
     22 C          -3.3430   -1.9330   -1.4360 C.3     1  UNL1       -0.0342
     23 C          -4.0250   -1.3950   -2.7140 C.3     1  UNL1       -0.0247
     24 C          -3.5060   -2.0160   -3.9900 C.ar    1  UNL1       -0.0469
     25 C          -3.7670   -3.3630   -4.2840 C.ar    1  UNL1       -0.0559
     26 C          -3.2830   -3.9360   -5.4610 C.ar    1  UNL1       -0.0262
     27 C          -2.5410   -3.1620   -6.3450 C.ar    1  UNL1        0.1234
     28 F          -2.0770   -3.7120   -7.4750 F       1  UNL1       -0.2055
     29 C          -2.2750   -1.8250   -6.0750 C.ar    1  UNL1       -0.0262
     30 C          -2.7580   -1.2500   -4.8990 C.ar    1  UNL1       -0.0559
     31 C          -4.0180   -1.3770   -0.1720 C.3     1  UNL1       -0.0340
     32 C          -3.7280    0.1060    0.0490 C.3     1  UNL1        0.0152
     33 C           0.4710    1.4210    1.3690 C.ar    1  UNL1       -0.0368
     34 C           1.8090    1.8500    1.2670 C.ar    1  UNL1        0.0318
     35 H           3.4020    2.0260    4.9540 H       1  UNL1        0.0428
     36 H           4.7610    2.2690    6.0660 H       1  UNL1        0.0428
     37 H           3.7370    0.8090    6.2120 H       1  UNL1        0.0428
     38 H           6.1410   -0.4190    5.9520 H       1  UNL1        0.0428
     39 H           6.8530    1.1960    5.6570 H       1  UNL1        0.0428
     40 H           7.0010   -0.0820    4.4300 H       1  UNL1        0.0428
     41 H           4.1770    3.7690   -1.3180 H       1  UNL1        0.0473
     42 H           3.9590    4.9880   -0.0130 H       1  UNL1        0.0473
     43 H           5.3430    3.8540    0.0350 H       1  UNL1        0.0473
     44 H           1.4530    4.2090   -1.2080 H       1  UNL1        0.0654
     45 H          -1.8330    0.4470   -2.0320 H       1  UNL1        0.0465
     46 H          -0.4810   -0.0060   -1.0020 H       1  UNL1        0.0465
     47 H          -1.4150   -2.1800   -0.5160 H       1  UNL1        0.0283
     48 H          -1.3170   -1.9740   -2.2540 H       1  UNL1        0.0283
     49 H          -3.4590   -3.0250   -1.4180 H       1  UNL1        0.0305
     50 H          -5.1040   -1.5950   -2.6630 H       1  UNL1        0.0316
     51 H          -3.9350   -0.3040   -2.7770 H       1  UNL1        0.0316
     52 H          -4.3500   -3.9730   -3.5980 H       1  UNL1        0.0621
     53 H          -3.4800   -4.9770   -5.6940 H       1  UNL1        0.0646
     54 H          -1.6970   -1.2400   -6.7830 H       1  UNL1        0.0646
     55 H          -2.5480   -0.2020   -4.6970 H       1  UNL1        0.0621
     56 H          -5.1020   -1.5400   -0.2110 H       1  UNL1        0.0283
     57 H          -3.6480   -1.9380    0.6960 H       1  UNL1        0.0283
     58 H          -4.1360    0.4060    1.0210 H       1  UNL1        0.0465
     59 H          -4.2270    0.7210   -0.7080 H       1  UNL1        0.0465
     60 H           0.1820    0.6570    2.0890 H       1  UNL1        0.0633
@<TRIPOS>BOND
     1     1     2    1
     2     1    35    1
     3     1    36    1
     4     1    37    1
     5     2     3    1
     6     2     4   am
     7     3    38    1
     8     3    39    1
     9     3    40    1
    10     4     5    2
    11     4     6    1
    12     6     7    2
    13     6     8    1
    14     8     9   ar
    15     8    34   ar
    16     9    10   ar
    17    10    11    1
    18    10    12   ar
    19    11    41    1
    20    11    42    1
    21    11    43    1
    22    12    13   ar
    23    12    34   ar
    24    13    14   ar
    25    13    44    1
    26    14    15    1
    27    14    16   ar
    28    16    17    1
    29    16    33   ar
    30    17    18    2
    31    17    19   am
    32    19    20    1
    33    19    32    1
    34    20    21    1
    35    20    45    1
    36    20    46    1
    37    21    22    1
    38    21    47    1
    39    21    48    1
    40    22    23    1
    41    22    31    1
    42    22    49    1
    43    23    24    1
    44    23    50    1
    45    23    51    1
    46    24    25   ar
    47    24    30   ar
    48    25    26   ar
    49    25    52    1
    50    26    27   ar
    51    26    53    1
    52    27    28    1
    53    27    29   ar
    54    29    30   ar
    55    29    54    1
    56    30    55    1
    57    31    32    1
    58    31    56    1
    59    31    57    1
    60    32    58    1
    61    32    59    1
    62    33    34   ar
    63    33    60    1
@<TRIPOS>MOLECULE
AD3CC00717756-I00-C02
 42 44 0 0 0
SMALL
GASTEIGER

@<TRIPOS>ATOM
      1 C           0.0680    2.4930    2.5070 C.3     1  UNL1        0.0790
      2 O          -0.7100    1.5640    1.7620 O.3     1  UNL1       -0.4915
      3 C          -0.5440    1.5590    0.3990 C.ar    1  UNL1        0.1615
      4 C           0.4850    2.2250   -0.2710 C.ar    1  UNL1       -0.0160
      5 C           0.5770    2.1670   -1.6630 C.ar    1  UNL1       -0.0548
      6 C          -0.3480    1.4290   -2.4080 C.ar    1  UNL1       -0.0422
      7 C          -0.2270    1.3450   -3.9130 C.3     1  UNL1       -0.0120
      8 C           1.0120    0.5870   -4.4200 C.3     1  UNL1        0.0149
      9 N           0.9560   -0.8350   -4.1040 N.pl3   1  UNL1       -0.3217
     10 C           1.4890   -1.2670   -2.9340 C.ar    1  UNL1        0.1823
     11 N           2.4220   -0.6610   -2.2270 N.ar    1  UNL1       -0.1252
     12 N           2.7150   -1.3220   -1.0500 N.ar    1  UNL1       -0.1328
     13 C           1.9940   -2.4120   -0.9140 C.ar    1  UNL1        0.1665
     14 S           2.1550   -3.4400    0.4870 S.3     1  UNL1       -0.0339
     15 C           0.7880   -2.7630    1.3430 C.ar    1  UNL1        0.1472
     16 N          -0.4440   -3.1390    1.0660 N.ar    1  UNL1       -0.2336
     17 C          -1.3220   -2.4700    1.9030 C.ar    1  UNL1        0.1139
     18 C          -0.7260   -1.6230    2.8060 C.ar    1  UNL1        0.3313
     19 N          -1.3790   -0.8370    3.8040 N.pl3   1  UNL1        0.0887
     20 O          -2.6130   -0.9290    3.8560 O.2     1  UNL1        0.0421
     21 O          -0.6760   -0.1690    4.5750 O.co2   1  UNL1       -0.5755
     22 S           0.9630   -1.6320    2.6240 S.2     1  UNL1        0.0133
     23 S           0.9460   -2.7400   -2.2260 S.2     1  UNL1       -0.0242
     24 C          -1.3780    0.7550   -1.7350 C.ar    1  UNL1       -0.0131
     25 C          -1.4850    0.8160   -0.3390 C.ar    1  UNL1        0.1617
     26 O          -2.4560    0.1760    0.3910 O.3     1  UNL1       -0.4914
     27 C          -3.5690   -0.3450   -0.3220 C.3     1  UNL1        0.0790
     28 H          -0.0670    3.5150    2.1380 H       1  UNL1        0.0660
     29 H          -0.2820    2.4690    3.5440 H       1  UNL1        0.0660
     30 H           1.1240    2.2060    2.5050 H       1  UNL1        0.0660
     31 H           1.2430    2.7890    0.2620 H       1  UNL1        0.0655
     32 H           1.3950    2.6870   -2.1570 H       1  UNL1        0.0621
     33 H          -0.2050    2.3690   -4.3080 H       1  UNL1        0.0328
     34 H          -1.1300    0.8820   -4.3310 H       1  UNL1        0.0328
     35 H           1.0370    0.6760   -5.5130 H       1  UNL1        0.0465
     36 H           1.9380    1.0500   -4.0590 H       1  UNL1        0.0465
     37 H           0.1230   -1.3160   -4.4260 H       1  UNL1        0.1480
     38 H          -2.3870   -2.6470    1.8080 H       1  UNL1        0.0906
     39 H          -2.0820    0.1720   -2.3200 H       1  UNL1        0.0658
     40 H          -4.3020   -0.6940    0.4120 H       1  UNL1        0.0660
     41 H          -3.2740   -1.2060   -0.9300 H       1  UNL1        0.0660
     42 H          -4.0500    0.4270   -0.9320 H       1  UNL1        0.0660
@<TRIPOS>UNITY_ATOM_ATTR
19 1
charge 1
21 1
charge -1
@<TRIPOS>BOND
     1     1     2    1
     2     1    28    1
     3     1    29    1
     4     1    30    1
     5     2     3    1
     6     3     4   ar
     7     3    25   ar
     8     4     5   ar
     9     4    31    1
    10     5     6   ar
    11     5    32    1
    12     6     7    1
    13     6    24   ar
    14     7     8    1
    15     7    33    1
    16     7    34    1
    17     8     9    1
    18     8    35    1
    19     8    36    1
    20     9    10    1
    21     9    37    1
    22    10    11   ar
    23    10    23   ar
    24    11    12   ar
    25    12    13   ar
    26    13    14    1
    27    13    23   ar
    28    14    15    1
    29    15    16   ar
    30    15    22   ar
    31    16    17   ar
    32    17    18   ar
    33    17    38    1
    34    18    19    1
    35    18    22   ar
    36    19    20    2
    37    19    21    1
    38    24    25   ar
    39    24    39    1
    40    25    26    1
    41    26    27    1
    42    27    40    1
    43    27    41    1
    44    27    42    1
@<TRIPOS>MOLECULE
AD3CC00717807-I00-C00
 30 31 0 0 0
SMALL
GASTEIGER

@<TRIPOS>ATOM
      1 C          -2.1360   -0.0610    5.1420 C.3     1  UNL1       -0.0636
      2 C          -2.9490    0.3220    3.9120 C.3     1  UNL1       -0.0376
      3 C          -2.1310    0.2410    2.6120 C.3     1  UNL1        0.0194
      4 C          -3.0380    0.4820    1.4040 C.3     1  UNL1       -0.0467
      5 N          -1.0810    1.2520    2.6400 N.pl3   1  UNL1       -0.3195
      6 C           0.0410    1.0840    1.8990 C.ar    1  UNL1        0.1825
      7 N           0.4430   -0.0320    1.3270 N.ar    1  UNL1       -0.1252
      8 N           1.6280    0.1190    0.6350 N.ar    1  UNL1       -0.1328
      9 C           2.0770    1.3530    0.6990 C.ar    1  UNL1        0.1665
     10 S           3.5680    1.8530   -0.0630 S.3     1  UNL1       -0.0339
     11 C           3.2030    1.1650   -1.6290 C.ar    1  UNL1        0.1472
     12 N           2.2970    1.7050   -2.4200 N.ar    1  UNL1       -0.2336
     13 C           2.2020    0.9580   -3.5820 C.ar    1  UNL1        0.1139
     14 C           3.0620   -0.1130   -3.6480 C.ar    1  UNL1        0.3313
     15 N           3.1890   -1.0460   -4.7210 N.pl3   1  UNL1        0.0887
     16 O           2.4270   -0.8810   -5.6830 O.2     1  UNL1        0.0421
     17 O           4.0410   -1.9380   -4.6240 O.co2   1  UNL1       -0.5755
     18 S           4.0200   -0.2130   -2.2490 S.2     1  UNL1        0.0133
     19 S           1.1060    2.4120    1.6280 S.2     1  UNL1       -0.0242
     20 H          -1.3030    0.6300    5.3030 H       1  UNL1        0.0230
     21 H          -1.7300   -1.0730    5.0440 H       1  UNL1        0.0230
     22 H          -2.7700   -0.0360    6.0340 H       1  UNL1        0.0230
     23 H          -3.3480    1.3350    4.0500 H       1  UNL1        0.0280
     24 H          -3.8100   -0.3540    3.8440 H       1  UNL1        0.0280
     25 H          -1.7030   -0.7680    2.5390 H       1  UNL1        0.0495
     26 H          -3.8450   -0.2580    1.3690 H       1  UNL1        0.0247
     27 H          -3.4900    1.4790    1.4380 H       1  UNL1        0.0247
     28 H          -2.4750    0.4060    0.4670 H       1  UNL1        0.0247
     29 H          -1.3850    2.2020    2.8200 H       1  UNL1        0.1483
     30 H           1.4870    1.2490   -4.3440 H       1  UNL1        0.0906
@<TRIPOS>UNITY_ATOM_ATTR
15 1
charge 1
17 1
charge -1
@<TRIPOS>BOND
     1     1     2    1
     2     1    20    1
     3     1    21    1
     4     1    22    1
     5     2     3    1
     6     2    23    1
     7     2    24    1
     8     3     4    1
     9     3     5    1
    10     3    25    1
    11     4    26    1
    12     4    27    1
    13     4    28    1
    14     5     6    1
    15     5    29    1
    16     6     7   ar
    17     6    19   ar
    18     7     8   ar
    19     8     9   ar
    20     9    10    1
    21     9    19   ar
    22    10    11    1
    23    11    12   ar
    24    11    18   ar
    25    12    13   ar
    26    13    14   ar
    27    13    30    1
    28    14    15    1
    29    14    18   ar
    30    15    16    2
    31    15    17    1
@<TRIPOS>MOLECULE
AD3CC00718112-I01-C00
 70 73 0 0 0
SMALL
GASTEIGER

@<TRIPOS>ATOM
      1 C           2.2650    1.6060   -2.1820 C.3     1  UNL1       -0.0480
      2 C           0.8560    2.2190   -2.2100 C.3     1  UNL1        0.0251
      3 C          -0.1060    1.2560   -2.9610 C.3     1  UNL1        0.0307
      4 N          -0.4870    0.0940   -2.1540 N.am    1  UNL1       -0.2920
      5 C          -0.6220   -1.1310   -2.7980 C.2     1  UNL1        0.2484
      6 O          -0.4280   -1.2850   -4.0020 O.2     1  UNL1       -0.2699
      7 C          -0.9400   -2.3170   -1.9500 C.ar    1  UNL1        0.0559
      8 C           0.0980   -2.7530   -1.2010 C.ar    1  UNL1       -0.0384
      9 C          -0.1430   -3.9670   -0.2770 C.ar    1  UNL1        0.0116
     10 C           0.6580   -4.6330    0.6770 C.ar    1  UNL1        0.0521
     11 C           2.0210   -4.3820    1.1380 C.2     1  UNL1        0.2494
     12 O           2.5550   -5.0540    2.0200 O.2     1  UNL1       -0.2817
     13 C           2.8230   -3.2130    0.5720 C.2     1  UNL1        0.2866
     14 O           3.3400   -3.3460   -0.5330 O.2     1  UNL1       -0.2664
     15 N           2.8930   -2.0480    1.3460 N.am    1  UNL1       -0.3010
     16 C           3.8090   -1.0060    0.9170 C.3     1  UNL1        0.0032
     17 C           2.4800   -2.0170    2.7400 C.3     1  UNL1        0.0032
     18 C          -0.1520   -5.6570    1.1700 C.ar    1  UNL1        0.0164
     19 N          -1.3800   -5.6030    0.5550 N.ar    1  UNL1       -0.3489
     20 C          -2.4820   -6.5040    0.7980 C.3     1  UNL1        0.0119
     21 C          -1.3770   -4.5570   -0.3120 C.ar    1  UNL1        0.0509
     22 C          -2.4730   -3.9810   -1.2460 C.ar    1  UNL1       -0.0185
     23 C          -2.1650   -2.8940   -1.9890 C.ar    1  UNL1        0.0550
     24 CL         -3.4350   -2.2670   -3.0070 Cl      1  UNL1       -0.0827
     25 C          -0.9810    0.4080   -0.7960 C.3     1  UNL1        0.0363
     26 C          -2.4110    0.9590   -0.8420 C.3     1  UNL1       -0.0452
     27 C          -0.0200    1.3890   -0.0770 C.3     1  UNL1        0.0193
     28 N           0.2960    2.5890   -0.8870 N.3     1  UNL1       -0.2755
     29 C           0.9580    3.6860   -0.1070 C.3     1  UNL1        0.1322
     30 C           1.4150    4.8580   -1.0170 C.3     1  UNL1       -0.0290
     31 C           2.1770    3.2080    0.6260 C.1     1  UNL1        0.0895
     32 N           3.1150    2.8260    1.1980 N.1     1  UNL1       -0.1943
     33 C          -0.0970    4.3170    0.8570 C.ar    1  UNL1       -0.0134
     34 C           0.1840    4.6180    2.2060 C.ar    1  UNL1       -0.0531
     35 C          -0.7890    5.1930    3.0300 C.ar    1  UNL1       -0.0261
     36 C          -2.0470    5.4810    2.5200 C.ar    1  UNL1        0.1234
     37 F          -2.9730    6.0310    3.3150 F       1  UNL1       -0.2055
     38 C          -2.3550    5.2080    1.1950 C.ar    1  UNL1       -0.0261
     39 C          -1.3870    4.6350    0.3690 C.ar    1  UNL1       -0.0531
     40 H           2.3100    0.6890   -1.5860 H       1  UNL1        0.0245
     41 H           3.0070    2.3070   -1.7930 H       1  UNL1        0.0245
     42 H           2.5850    1.3460   -3.1980 H       1  UNL1        0.0245
     43 H           0.9020    3.1160   -2.8380 H       1  UNL1        0.0476
     44 H           0.3510    0.9390   -3.9060 H       1  UNL1        0.0480
     45 H          -1.0310    1.7830   -3.2260 H       1  UNL1        0.0480
     46 H           1.0660   -2.2680   -1.2590 H       1  UNL1        0.0632
     47 H           3.4020   -0.0330    1.2030 H       1  UNL1        0.0428
     48 H           3.9510   -1.0230   -0.1670 H       1  UNL1        0.0428
     49 H           4.7750   -1.1630    1.4050 H       1  UNL1        0.0428
     50 H           1.6030   -2.6470    2.9090 H       1  UNL1        0.0428
     51 H           2.2250   -0.9910    3.0210 H       1  UNL1        0.0428
     52 H           3.3070   -2.3770    3.3590 H       1  UNL1        0.0428
     53 H           0.0660   -6.4120    1.9160 H       1  UNL1        0.0816
     54 H          -2.7540   -6.9820   -0.1460 H       1  UNL1        0.0456
     55 H          -2.1810   -7.2630    1.5250 H       1  UNL1        0.0456
     56 H          -3.3200   -5.9250    1.1930 H       1  UNL1        0.0456
     57 H          -3.4550   -4.4390   -1.2910 H       1  UNL1        0.0653
     58 H          -1.0150   -0.5060   -0.1960 H       1  UNL1        0.0510
     59 H          -2.7870    1.1380    0.1710 H       1  UNL1        0.0248
     60 H          -3.0880    0.2530   -1.3300 H       1  UNL1        0.0248
     61 H          -2.4720    1.9040   -1.3920 H       1  UNL1        0.0248
     62 H           0.8990    0.8470    0.1740 H       1  UNL1        0.0445
     63 H          -0.4820    1.6700    0.8770 H       1  UNL1        0.0445
     64 H           2.2460    4.5750   -1.6730 H       1  UNL1        0.0261
     65 H           1.7700    5.7080   -0.4190 H       1  UNL1        0.0261
     66 H           0.6000    5.2300   -1.6490 H       1  UNL1        0.0261
     67 H           1.1580    4.4170    2.6470 H       1  UNL1        0.0622
     68 H          -0.5680    5.4210    4.0690 H       1  UNL1        0.0646
     69 H          -3.3430    5.4440    0.8130 H       1  UNL1        0.0646
     70 H          -1.6450    4.4280   -0.6690 H       1  UNL1        0.0622
@<TRIPOS>BOND
     1     1     2    1
     2     1    40    1
     3     1    41    1
     4     1    42    1
     5     2     3    1
     6     2    28    1
     7     2    43    1
     8     3     4    1
     9     3    44    1
    10     3    45    1
    11     4     5   am
    12     4    25    1
    13     5     6    2
    14     5     7    1
    15     7     8   ar
    16     7    23   ar
    17     8     9   ar
    18     8    46    1
    19     9    10   ar
    20     9    21   ar
    21    10    11    1
    22    10    18   ar
    23    11    12    2
    24    11    13    1
    25    13    14    2
    26    13    15   am
    27    15    16    1
    28    15    17    1
    29    16    47    1
    30    16    48    1
    31    16    49    1
    32    17    50    1
    33    17    51    1
    34    17    52    1
    35    18    19   ar
    36    18    53    1
    37    19    20    1
    38    19    21   ar
    39    20    54    1
    40    20    55    1
    41    20    56    1
    42    21    22   ar
    43    22    23   ar
    44    22    57    1
    45    23    24    1
    46    25    26    1
    47    25    27    1
    48    25    58    1
    49    26    59    1
    50    26    60    1
    51    26    61    1
    52    27    28    1
    53    27    62    1
    54    27    63    1
    55    28    29    1
    56    29    30    1
    57    29    31    1
    58    29    33    1
    59    30    64    1
    60    30    65    1
    61    30    66    1
    62    31    32    3
    63    33    34   ar
    64    33    39   ar
    65    34    35   ar
    66    34    67    1
    67    35    36   ar
    68    35    68    1
    69    36    37    1
    70    36    38   ar
    71    38    39   ar
    72    38    69    1
    73    39    70    1
@<TRIPOS>MOLECULE
AD3CC00727151-I00-C00
 33 35 0 0 0
SMALL
GASTEIGER

@<TRIPOS>ATOM
      1 C          -1.9700   -1.2820    3.2970 C.3     1  UNL1        0.0789
      2 O          -1.5510   -0.0130    3.7820 O.3     1  UNL1       -0.4936
      3 C          -0.7590    0.7560    2.9690 C.ar    1  UNL1        0.1390
      4 C          -0.3950    0.4100    1.6620 C.ar    1  UNL1       -0.0091
      5 C           0.4300    1.2580    0.9100 C.ar    1  UNL1        0.0073
      6 C           0.8510    2.4850    1.4380 C.ar    1  UNL1       -0.0349
      7 C           0.5020    2.8310    2.7450 C.ar    1  UNL1       -0.0360
      8 C          -0.2970    1.9720    3.5040 C.ar    1  UNL1        0.0828
      9 CL         -0.7020    2.4590    5.1140 Cl      1  UNL1       -0.0797
     10 C           1.6940    3.3820    0.5780 C.3     1  UNL1       -0.0074
     11 C           1.2470    3.2370   -0.8740 C.3     1  UNL1        0.0444
     12 N           1.2730    1.8370   -1.3190 N.2     1  UNL1       -0.2824
     13 C           0.8820    0.9310   -0.4790 C.2     1  UNL1        0.0731
     14 C           0.9170   -0.4830   -0.9410 C.ar    1  UNL1        0.0019
     15 C           0.3890   -0.7960   -2.1990 C.ar    1  UNL1       -0.0525
     16 C           0.4190   -2.1120   -2.6600 C.ar    1  UNL1       -0.0598
     17 C           0.9880   -3.1130   -1.8700 C.ar    1  UNL1       -0.0434
     18 C           1.5340   -2.7900   -0.6280 C.ar    1  UNL1        0.0416
     19 CL          2.2430   -4.0260    0.3380 Cl      1  UNL1       -0.0835
     20 C           1.5100   -1.4780   -0.1580 C.ar    1  UNL1       -0.0342
     21 H          -2.6240   -1.1720    2.4250 H       1  UNL1        0.0660
     22 H          -1.1120   -1.9230    3.0710 H       1  UNL1        0.0660
     23 H          -2.5500   -1.7670    4.0880 H       1  UNL1        0.0660
     24 H          -0.7590   -0.5080    1.2140 H       1  UNL1        0.0661
     25 H           0.8430    3.7720    3.1710 H       1  UNL1        0.0636
     26 H           2.7460    3.0950    0.6890 H       1  UNL1        0.0331
     27 H           1.5900    4.4290    0.8860 H       1  UNL1        0.0331
     28 H           0.2370    3.6400   -1.0200 H       1  UNL1        0.0511
     29 H           1.9200    3.8170   -1.5150 H       1  UNL1        0.0511
     30 H          -0.0410   -0.0130   -2.8200 H       1  UNL1        0.0624
     31 H           0.0080   -2.3560   -3.6370 H       1  UNL1        0.0618
     32 H           1.0130   -4.1370   -2.2340 H       1  UNL1        0.0632
     33 H           1.9650   -1.2360    0.7980 H       1  UNL1        0.0639
@<TRIPOS>BOND
     1     1     2    1
     2     1    21    1
     3     1    22    1
     4     1    23    1
     5     2     3    1
     6     3     4   ar
     7     3     8   ar
     8     4     5   ar
     9     4    24    1
    10     5     6   ar
    11     5    13    1
    12     6     7   ar
    13     6    10    1
    14     7     8   ar
    15     7    25    1
    16     8     9    1
    17    10    11    1
    18    10    26    1
    19    10    27    1
    20    11    12    1
    21    11    28    1
    22    11    29    1
    23    12    13    2
    24    13    14    1
    25    14    15   ar
    26    14    20   ar
    27    15    16   ar
    28    15    30    1
    29    16    17   ar
    30    16    31    1
    31    17    18   ar
    32    17    32    1
    33    18    19    1
    34    18    20   ar
    35    20    33    1
@<TRIPOS>MOLECULE
AD3CC00728436-I00-C00
 43 45 0 0 0
SMALL
GASTEIGER

@<TRIPOS>ATOM
      1 C          -1.1950   -0.8690    1.7690 C.3     1  UNL1       -0.0240
      2 C          -0.5290    0.0130    0.7470 C.ar    1  UNL1        0.0228
      3 C           0.0920   -0.5410   -0.3060 C.ar    1  UNL1        0.0006
      4 C           0.7290    0.2670   -1.3110 C.ar    1  UNL1        0.1418
      5 O           1.3690   -0.4390   -2.3100 O.3     1  UNL1       -0.4859
      6 C           0.4700   -0.7690   -3.3790 C.3     1  UNL1        0.1173
      7 C           1.2430   -1.3960   -4.5110 C.ar    1  UNL1        0.0250
      8 C           2.5040   -0.9120   -4.8960 C.ar    1  UNL1       -0.0499
      9 C           3.1820   -1.4900   -5.9720 C.ar    1  UNL1       -0.0259
     10 C           2.5970   -2.5420   -6.6690 C.ar    1  UNL1        0.1261
     11 F           3.2500   -3.0920   -7.7000 F       1  UNL1       -0.2054
     12 C           1.3460   -3.0260   -6.3170 C.ar    1  UNL1        0.0092
     13 C           0.6780   -2.4450   -5.2450 C.ar    1  UNL1        0.1325
     14 F          -0.5370   -2.9070   -4.9170 F       1  UNL1       -0.2050
     15 C           0.7790    1.6040   -1.2040 C.ar    1  UNL1        0.1238
     16 BR          1.6690    2.7000   -2.4300 Br      1  UNL1       -0.0409
     17 C           0.0770    2.2570   -0.0470 C.ar    1  UNL1        0.2694
     18 O           0.0710    3.4830    0.0640 O.2     1  UNL1       -0.2663
     19 N          -0.5500    1.4070    0.8830 N.ar    1  UNL1       -0.3072
     20 C          -1.2380    2.0580    2.0110 C.3     1  UNL1        0.0526
     21 C          -0.4400    2.0610    3.3060 C.ar    1  UNL1       -0.0103
     22 C           0.8790    2.5540    3.3080 C.ar    1  UNL1       -0.0556
     23 C           1.6340    2.5950    4.4820 C.ar    1  UNL1       -0.0614
     24 C           1.0830    2.1580    5.6810 C.ar    1  UNL1       -0.0605
     25 C          -0.2280    1.6870    5.7090 C.ar    1  UNL1       -0.0440
     26 C          -0.9950    1.6420    4.5340 C.ar    1  UNL1        0.0566
     27 C          -2.3430    1.1560    4.6300 C.1     1  UNL1        0.0995
     28 N          -3.4290    0.7530    4.6880 N.1     1  UNL1       -0.1909
     29 H          -0.7150   -0.7660    2.7460 H       1  UNL1        0.0292
     30 H          -2.2600   -0.6350    1.8580 H       1  UNL1        0.0292
     31 H          -1.1290   -1.9280    1.4960 H       1  UNL1        0.0292
     32 H           0.1410   -1.6200   -0.4270 H       1  UNL1        0.0672
     33 H          -0.0330    0.1300   -3.7570 H       1  UNL1        0.0749
     34 H          -0.2850   -1.4700   -3.0030 H       1  UNL1        0.0749
     35 H           2.9640   -0.0850   -4.3590 H       1  UNL1        0.0623
     36 H           4.1600   -1.1250   -6.2710 H       1  UNL1        0.0646
     37 H           0.8950   -3.8410   -6.8700 H       1  UNL1        0.0675
     38 H          -1.4630    3.1030    1.7670 H       1  UNL1        0.0543
     39 H          -2.2170    1.5830    2.1200 H       1  UNL1        0.0543
     40 H           1.3320    2.9240    2.3890 H       1  UNL1        0.0621
     41 H           2.6520    2.9780    4.4560 H       1  UNL1        0.0618
     42 H           1.6710    2.1940    6.5950 H       1  UNL1        0.0618
     43 H          -0.6510    1.3570    6.6570 H       1  UNL1        0.0630
@<TRIPOS>BOND
     1     1     2    1
     2     1    29    1
     3     1    30    1
     4     1    31    1
     5     2     3   ar
     6     2    19   ar
     7     3     4   ar
     8     3    32    1
     9     4     5    1
    10     4    15   ar
    11     5     6    1
    12     6     7    1
    13     6    33    1
    14     6    34    1
    15     7     8   ar
    16     7    13   ar
    17     8     9   ar
    18     8    35    1
    19     9    10   ar
    20     9    36    1
    21    10    11    1
    22    10    12   ar
    23    12    13   ar
    24    12    37    1
    25    13    14    1
    26    15    16    1
    27    15    17   ar
    28    17    18    2
    29    17    19   ar
    30    19    20    1
    31    20    21    1
    32    20    38    1
    33    20    39    1
    34    21    22   ar
    35    21    26   ar
    36    22    23   ar
    37    22    40    1
    38    23    24   ar
    39    23    41    1
    40    24    25   ar
    41    24    42    1
    42    25    26   ar
    43    25    43    1
    44    26    27    1
    45    27    28    3
@<TRIPOS>MOLECULE
AD3CC00731872-I00-C01
 52 55 0 0 0
SMALL
GASTEIGER

@<TRIPOS>ATOM
      1 C           5.8680   -0.5800   -0.6120 C.3     1  UNL1        0.0043
      2 N           4.7590   -1.4960   -0.8440 N.am    1  UNL1       -0.2916
      3 C           5.0300   -2.5650   -1.7880 C.3     1  UNL1        0.0043
      4 C           3.8510   -1.7770    0.1720 C.2     1  UNL1        0.3043
      5 O           3.4350   -2.9160    0.3830 O.2     1  UNL1       -0.2524
      6 N           3.4260   -0.6860    0.9290 N.am    1  UNL1       -0.2855
      7 C           2.9880    0.5360    0.2540 C.3     1  UNL1        0.0167
      8 C           1.5010    0.4450   -0.0970 C.3     1  UNL1       -0.0288
      9 C           0.6590    0.1260    1.1520 C.3     1  UNL1        0.0043
     10 C          -0.7960   -0.0210    0.8050 C.ar    1  UNL1        0.0490
     11 N          -1.2500   -1.0060   -0.0300 N.ar    1  UNL1       -0.2801
     12 N          -2.5600   -0.9470   -0.2840 N.ar    1  UNL1       -0.1730
     13 C          -3.0010    0.1140    0.4130 C.ar    1  UNL1        0.1019
     14 C          -4.4160    0.4970    0.3560 C.ar    1  UNL1        0.0028
     15 C          -5.1310    0.3410   -0.8430 C.ar    1  UNL1       -0.0511
     16 C          -6.4810    0.6980   -0.9250 C.ar    1  UNL1       -0.0428
     17 C          -7.1270    1.2090    0.1960 C.ar    1  UNL1        0.0410
     18 CL         -8.7870    1.6500    0.1000 Cl      1  UNL1       -0.0835
     19 C          -6.4390    1.3620    1.3970 C.ar    1  UNL1       -0.0428
     20 C          -5.0880    1.0040    1.4770 C.ar    1  UNL1       -0.0511
     21 C          -1.9230    0.7150    1.1380 C.ar    1  UNL1        0.0489
     22 C          -1.9080    1.8890    1.9860 C.ar    1  UNL1        0.0780
     23 C          -1.5700    1.7900    3.3210 C.ar    1  UNL1       -0.0174
     24 C          -1.6050    2.9650    4.0320 C.ar    1  UNL1        0.0313
     25 N          -1.9430    4.1490    3.4900 N.ar    1  UNL1       -0.2437
     26 C          -2.2570    4.1270    2.1860 C.ar    1  UNL1        0.1166
     27 N          -2.2570    3.0470    1.3950 N.ar    1  UNL1       -0.2353
     28 C           1.1940   -1.1170    1.8830 C.3     1  UNL1       -0.0288
     29 C           2.6910   -0.9760    2.1550 C.3     1  UNL1        0.0167
     30 H           5.6600    0.1470    0.1750 H       1  UNL1        0.0429
     31 H           6.0920   -0.0540   -1.5450 H       1  UNL1        0.0429
     32 H           6.7420   -1.1620   -0.3010 H       1  UNL1        0.0429
     33 H           4.1090   -3.1040   -2.0290 H       1  UNL1        0.0429
     34 H           5.4430   -2.1410   -2.7080 H       1  UNL1        0.0429
     35 H           5.7460   -3.2650   -1.3450 H       1  UNL1        0.0429
     36 H           3.1750    1.3780    0.9300 H       1  UNL1        0.0465
     37 H           3.5510    0.7130   -0.6660 H       1  UNL1        0.0465
     38 H           1.1710    1.3890   -0.5470 H       1  UNL1        0.0287
     39 H           1.3610   -0.3340   -0.8580 H       1  UNL1        0.0287
     40 H           0.7690    0.9780    1.8360 H       1  UNL1        0.0365
     41 H          -0.7110   -1.7430   -0.4760 H       1  UNL1        0.1886
     42 H          -4.6330   -0.0610   -1.7240 H       1  UNL1        0.0625
     43 H          -7.0140    0.5710   -1.8630 H       1  UNL1        0.0632
     44 H          -6.9430    1.7550    2.2750 H       1  UNL1        0.0632
     45 H          -4.5790    1.1170    2.4290 H       1  UNL1        0.0625
     46 H          -1.3040    0.8510    3.7860 H       1  UNL1        0.0654
     47 H          -1.3580    2.9910    5.0890 H       1  UNL1        0.0831
     48 H          -2.5360    5.0710    1.7310 H       1  UNL1        0.1047
     49 H           1.0160   -2.0170    1.2820 H       1  UNL1        0.0287
     50 H           0.6590   -1.2600    2.8300 H       1  UNL1        0.0287
     51 H           2.8760   -0.1530    2.8550 H       1  UNL1        0.0465
     52 H           3.0790   -1.8910    2.6180 H       1  UNL1        0.0465
@<TRIPOS>BOND
     1     1     2    1
     2     1    30    1
     3     1    31    1
     4     1    32    1
     5     2     3    1
     6     2     4   am
     7     3    33    1
     8     3    34    1
     9     3    35    1
    10     4     5    2
    11     4     6   am
    12     6     7    1
    13     6    29    1
    14     7     8    1
    15     7    36    1
    16     7    37    1
    17     8     9    1
    18     8    38    1
    19     8    39    1
    20     9    10    1
    21     9    28    1
    22     9    40    1
    23    10    11   ar
    24    10    21   ar
    25    11    12   ar
    26    11    41    1
    27    12    13   ar
    28    13    14    1
    29    13    21   ar
    30    14    15   ar
    31    14    20   ar
    32    15    16   ar
    33    15    42    1
    34    16    17   ar
    35    16    43    1
    36    17    18    1
    37    17    19   ar
    38    19    20   ar
    39    19    44    1
    40    20    45    1
    41    21    22    1
    42    22    23   ar
    43    22    27   ar
    44    23    24   ar
    45    23    46    1
    46    24    25   ar
    47    24    47    1
    48    25    26   ar
    49    26    27   ar
    50    26    48    1
    51    28    29    1
    52    28    49    1
    53    28    50    1
    54    29    51    1
    55    29    52    1
@<TRIPOS>MOLECULE
AD3CC00733425-I00-C05
 67 71 0 0 0
SMALL
GASTEIGER

@<TRIPOS>ATOM
      1 C          -2.0570    2.9660    4.2660 C.3     1  UNL1       -0.0425
      2 C          -1.8890    2.2890    2.9020 C.3     1  UNL1        0.0444
      3 N          -1.3260    0.9530    3.1110 N.pl3   1  UNL1       -0.3225
      4 C          -1.0600    0.1710    1.9930 C.ar    1  UNL1        0.1209
      5 C          -1.9910   -0.0480    0.9850 C.ar    1  UNL1       -0.0004
      6 C          -1.6280   -0.7940   -0.1390 C.ar    1  UNL1        0.0428
      7 N          -2.5590   -1.0030   -1.2130 N.am    1  UNL1       -0.2509
      8 C          -3.9220   -1.4180   -0.8560 C.3     1  UNL1        0.0463
      9 C          -3.9950   -2.7740   -0.1810 C.ar    1  UNL1       -0.0295
     10 C          -4.1610   -2.8740    1.2110 C.ar    1  UNL1       -0.0543
     11 C          -4.2110   -4.1240    1.8310 C.ar    1  UNL1       -0.0261
     12 C          -4.0970   -5.2750    1.0630 C.ar    1  UNL1        0.1234
     13 F          -4.1460   -6.4740    1.6600 F       1  UNL1       -0.2055
     14 C          -3.9330   -5.2020   -0.3140 C.ar    1  UNL1       -0.0261
     15 C          -3.8810   -3.9530   -0.9360 C.ar    1  UNL1       -0.0543
     16 C          -2.1570   -1.2140   -2.5370 C.2     1  UNL1        0.3094
     17 O          -2.7700   -1.9520   -3.3100 O.2     1  UNL1       -0.2521
     18 N          -1.0330   -0.4900   -2.9640 N.am    1  UNL1       -0.2846
     19 C          -0.4480   -0.9180   -4.2260 C.3     1  UNL1        0.0167
     20 C           0.9840   -0.4280   -4.3570 C.3     1  UNL1       -0.0302
     21 C           1.0800    1.0990   -4.2170 C.3     1  UNL1       -0.0135
     22 C           2.5440    1.4930   -4.2230 C.2     1  UNL1       -0.0803
     23 C           3.2100    1.7270   -3.0810 C.2     1  UNL1       -0.0657
     24 C           2.5550    1.6020   -1.8000 C.2     1  UNL1       -0.0656
     25 C           1.2170    1.5540   -1.7110 C.2     1  UNL1       -0.0789
     26 C           0.3460    1.6240   -2.9490 C.3     1  UNL1       -0.0005
     27 C          -1.0310    0.9620   -2.7690 C.3     1  UNL1        0.0229
     28 C          -0.3450   -1.3380   -0.1820 C.ar    1  UNL1       -0.0219
     29 C           0.5010   -1.1130    0.8860 C.ar    1  UNL1        0.0314
     30 N           0.1690   -0.3730    1.9650 N.ar    1  UNL1       -0.2404
     31 C          -1.0450    3.1520    1.9740 C.ar    1  UNL1       -0.0275
     32 C          -1.6370    3.7460    0.8460 C.ar    1  UNL1       -0.0568
     33 C          -0.8830    4.5390   -0.0220 C.ar    1  UNL1       -0.0614
     34 C           0.4710    4.7490    0.2250 C.ar    1  UNL1       -0.0617
     35 C           1.0730    4.1690    1.3390 C.ar    1  UNL1       -0.0614
     36 C           0.3210    3.3770    2.2090 C.ar    1  UNL1       -0.0568
     37 H          -2.4990    3.9620    4.1590 H       1  UNL1        0.0251
     38 H          -1.0990    3.0780    4.7880 H       1  UNL1        0.0251
     39 H          -2.7120    2.3720    4.9120 H       1  UNL1        0.0251
     40 H          -2.8980    2.1830    2.4820 H       1  UNL1        0.0545
     41 H          -0.4440    0.9720    3.6200 H       1  UNL1        0.1480
     42 H          -2.9720    0.4000    1.0620 H       1  UNL1        0.0670
     43 H          -4.3820   -0.6490   -0.2260 H       1  UNL1        0.0518
     44 H          -4.5490   -1.4450   -1.7570 H       1  UNL1        0.0518
     45 H          -4.2430   -1.9800    1.8250 H       1  UNL1        0.0622
     46 H          -4.3320   -4.2050    2.9060 H       1  UNL1        0.0646
     47 H          -3.8430   -6.1140   -0.8960 H       1  UNL1        0.0646
     48 H          -3.7470   -3.9040   -2.0150 H       1  UNL1        0.0622
     49 H          -0.4620   -2.0130   -4.2790 H       1  UNL1        0.0465
     50 H          -1.0720   -0.5410   -5.0460 H       1  UNL1        0.0465
     51 H           1.3880   -0.7420   -5.3280 H       1  UNL1        0.0286
     52 H           1.5960   -0.9190   -3.5880 H       1  UNL1        0.0286
     53 H           0.6000    1.5610   -5.0900 H       1  UNL1        0.0350
     54 H           3.0570    1.5580   -5.1780 H       1  UNL1        0.0575
     55 H           4.2640    1.9890   -3.0910 H       1  UNL1        0.0614
     56 H           3.1720    1.5890   -0.9070 H       1  UNL1        0.0614
     57 H           0.7440    1.5280   -0.7330 H       1  UNL1        0.0575
     58 H           0.1500    2.6980   -3.0920 H       1  UNL1        0.0364
     59 H          -1.7210    1.3680   -3.5230 H       1  UNL1        0.0471
     60 H          -1.4680    1.2380   -1.8060 H       1  UNL1        0.0471
     61 H          -0.0060   -1.9520   -1.0090 H       1  UNL1        0.0651
     62 H           1.5020   -1.5320    0.9010 H       1  UNL1        0.0831
     63 H          -2.6930    3.5940    0.6330 H       1  UNL1        0.0621
     64 H          -1.3510    4.9920   -0.8910 H       1  UNL1        0.0618
     65 H           1.0610    5.3590   -0.4540 H       1  UNL1        0.0618
     66 H           2.1320    4.3250    1.5280 H       1  UNL1        0.0618
     67 H           0.8150    2.9230    3.0650 H       1  UNL1        0.0621
@<TRIPOS>BOND
     1     1     2    1
     2     1    37    1
     3     1    38    1
     4     1    39    1
     5     2     3    1
     6     2    31    1
     7     2    40    1
     8     3     4    1
     9     3    41    1
    10     4     5   ar
    11     4    30   ar
    12     5     6   ar
    13     5    42    1
    14     6     7    1
    15     6    28   ar
    16     7     8    1
    17     7    16   am
    18     8     9    1
    19     8    43    1
    20     8    44    1
    21     9    10   ar
    22     9    15   ar
    23    10    11   ar
    24    10    45    1
    25    11    12   ar
    26    11    46    1
    27    12    13    1
    28    12    14   ar
    29    14    15   ar
    30    14    47    1
    31    15    48    1
    32    16    17    2
    33    16    18   am
    34    18    19    1
    35    18    27    1
    36    19    20    1
    37    19    49    1
    38    19    50    1
    39    20    21    1
    40    20    51    1
    41    20    52    1
    42    21    22    1
    43    21    26    1
    44    21    53    1
    45    22    23    2
    46    22    54    1
    47    23    24    1
    48    23    55    1
    49    24    25    2
    50    24    56    1
    51    25    26    1
    52    25    57    1
    53    26    27    1
    54    26    58    1
    55    27    59    1
    56    27    60    1
    57    28    29   ar
    58    28    61    1
    59    29    30   ar
    60    29    62    1
    61    31    32   ar
    62    31    36   ar
    63    32    33   ar
    64    32    63    1
    65    33    34   ar
    66    33    64    1
    67    34    35   ar
    68    34    65    1
    69    35    36   ar
    70    35    66    1
    71    36    67    1
@<TRIPOS>MOLECULE
AD3CC00733427-I00-C02
 54 56 0 0 0
SMALL
GASTEIGER

@<TRIPOS>ATOM
      1 C           4.9010   -3.2310    1.3180 C.3     1  UNL1       -0.0613
      2 C           5.6860   -1.9440    1.1120 C.3     1  UNL1       -0.0305
      3 C           4.8900   -0.7320    1.5240 C.ar    1  UNL1       -0.0469
      4 C           4.9790   -0.2310    2.8310 C.ar    1  UNL1       -0.0585
      5 C           4.2430    0.8930    3.2180 C.ar    1  UNL1       -0.0608
      6 C           3.3960    1.5190    2.3060 C.ar    1  UNL1       -0.0496
      7 C           3.2790    1.0040    1.0120 C.ar    1  UNL1        0.0375
      8 C           2.3960    1.6670    0.0310 C.2     1  UNL1        0.2519
      9 O           2.9760    2.2580   -0.8770 O.2     1  UNL1       -0.2696
     10 N           1.0090    1.5560    0.2040 N.am    1  UNL1       -0.2522
     11 C           0.4130    0.5280    1.0820 C.3     1  UNL1        0.0186
     12 C           0.2310   -0.8070    0.3700 C.3     1  UNL1       -0.0488
     13 C           0.0770    2.2930   -0.6080 C.ar    1  UNL1        0.1328
     14 C           0.4520    3.3790   -1.3700 C.ar    1  UNL1       -0.0030
     15 C          -0.5400    4.0010   -2.0880 C.ar    1  UNL1        0.0344
     16 N          -1.8240    3.6120   -2.0740 N.ar    1  UNL1       -0.2228
     17 C          -2.1180    2.5660   -1.3020 C.ar    1  UNL1        0.2173
     18 N          -3.4540    2.1890   -1.2970 N.pl3   1  UNL1       -0.3069
     19 C          -3.6910    0.7510   -1.2600 C.3     1  UNL1        0.0457
     20 C          -3.8850    0.2760    0.1840 C.3     1  UNL1       -0.0424
     21 C          -4.9280    0.4380   -2.0970 C.ar    1  UNL1       -0.0275
     22 C          -4.8290   -0.4200   -3.2040 C.ar    1  UNL1       -0.0568
     23 C          -5.9520   -0.7110   -3.9810 C.ar    1  UNL1       -0.0614
     24 C          -7.1860   -0.1460   -3.6660 C.ar    1  UNL1       -0.0617
     25 C          -7.3000    0.7120   -2.5760 C.ar    1  UNL1       -0.0614
     26 C          -6.1790    1.0040   -1.7970 C.ar    1  UNL1       -0.0568
     27 N          -1.2160    1.9010   -0.5700 N.ar    1  UNL1       -0.1991
     28 C           4.0340   -0.1030    0.6110 C.ar    1  UNL1       -0.0464
     29 H           5.5010   -4.0930    1.0120 H       1  UNL1        0.0233
     30 H           3.9790   -3.2330    0.7260 H       1  UNL1        0.0233
     31 H           4.6250   -3.3640    2.3690 H       1  UNL1        0.0233
     32 H           5.9790   -1.8520    0.0590 H       1  UNL1        0.0311
     33 H           6.6210   -1.9850    1.6850 H       1  UNL1        0.0311
     34 H           5.6350   -0.7090    3.5560 H       1  UNL1        0.0620
     35 H           4.3370    1.2800    4.2290 H       1  UNL1        0.0618
     36 H           2.8330    2.4010    2.6010 H       1  UNL1        0.0625
     37 H           1.0440    0.3650    1.9580 H       1  UNL1        0.0466
     38 H          -0.5400    0.8860    1.4890 H       1  UNL1        0.0466
     39 H          -0.4380   -0.7170   -0.4910 H       1  UNL1        0.0245
     40 H          -0.1980   -1.5440    1.0560 H       1  UNL1        0.0245
     41 H           1.1870   -1.1960    0.0070 H       1  UNL1        0.0245
     42 H           1.4560    3.7720   -1.4150 H       1  UNL1        0.0667
     43 H          -0.3210    4.8630   -2.7110 H       1  UNL1        0.0832
     44 H          -3.8490    2.6510   -2.1110 H       1  UNL1        0.1495
     45 H          -2.8460    0.2010   -1.6960 H       1  UNL1        0.0545
     46 H          -2.9750    0.4170    0.7750 H       1  UNL1        0.0251
     47 H          -4.6850    0.8260    0.6930 H       1  UNL1        0.0251
     48 H          -4.1390   -0.7890    0.2140 H       1  UNL1        0.0251
     49 H          -3.8750   -0.8680   -3.4710 H       1  UNL1        0.0621
     50 H          -5.8630   -1.3770   -4.8360 H       1  UNL1        0.0618
     51 H          -8.0590   -0.3720   -4.2740 H       1  UNL1        0.0618
     52 H          -8.2600    1.1580   -2.3320 H       1  UNL1        0.0618
     53 H          -6.2820    1.6850   -0.9540 H       1  UNL1        0.0621
     54 H           3.9520   -0.4670   -0.4110 H       1  UNL1        0.0628
@<TRIPOS>BOND
     1     1     2    1
     2     1    29    1
     3     1    30    1
     4     1    31    1
     5     2     3    1
     6     2    32    1
     7     2    33    1
     8     3     4   ar
     9     3    28   ar
    10     4     5   ar
    11     4    34    1
    12     5     6   ar
    13     5    35    1
    14     6     7   ar
    15     6    36    1
    16     7     8    1
    17     7    28   ar
    18     8     9    2
    19     8    10   am
    20    10    11    1
    21    10    13    1
    22    11    12    1
    23    11    37    1
    24    11    38    1
    25    12    39    1
    26    12    40    1
    27    12    41    1
    28    13    14   ar
    29    13    27   ar
    30    14    15   ar
    31    14    42    1
    32    15    16   ar
    33    15    43    1
    34    16    17   ar
    35    17    18    1
    36    17    27   ar
    37    18    19    1
    38    18    44    1
    39    19    20    1
    40    19    21    1
    41    19    45    1
    42    20    46    1
    43    20    47    1
    44    20    48    1
    45    21    22   ar
    46    21    26   ar
    47    22    23   ar
    48    22    49    1
    49    23    24   ar
    50    23    50    1
    51    24    25   ar
    52    24    51    1
    53    25    26   ar
    54    25    52    1
    55    26    53    1
    56    28    54    1
@<TRIPOS>MOLECULE
AD3CC00733428-I00-C00
 55 58 0 0 0
SMALL
GASTEIGER

@<TRIPOS>ATOM
      1 C          -1.7170    0.4340   -1.0610 C.3     1  UNL1       -0.0488
      2 C          -0.9840   -0.4130   -0.0280 C.3     1  UNL1        0.0186
      3 N          -0.3860   -1.6290   -0.6200 N.am    1  UNL1       -0.2522
      4 C          -1.1080   -2.8250   -0.7410 C.2     1  UNL1        0.2519
      5 O          -0.7950   -3.8180   -1.3930 O.2     1  UNL1       -0.2696
      6 C          -2.3930   -2.9400   -0.0240 C.ar    1  UNL1        0.0375
      7 C          -2.4010   -3.2070    1.3470 C.ar    1  UNL1       -0.0496
      8 C          -3.6200   -3.3330    2.0050 C.ar    1  UNL1       -0.0608
      9 C          -4.8150   -3.2020    1.2900 C.ar    1  UNL1       -0.0583
     10 C          -4.8280   -2.9480   -0.0940 C.ar    1  UNL1       -0.0436
     11 C          -6.1240   -2.8360   -0.8590 C.3     1  UNL1       -0.0158
     12 C          -7.1680   -1.8280   -0.4360 C.3     1  UNL1       -0.0457
     13 C          -6.4010   -1.6150   -1.7050 C.3     1  UNL1       -0.0457
     14 C          -3.5890   -2.8370   -0.7420 C.ar    1  UNL1       -0.0462
     15 C           0.9190   -1.4520   -1.2070 C.ar    1  UNL1        0.1328
     16 C           1.6500   -2.4900   -1.7420 C.ar    1  UNL1       -0.0030
     17 C           2.8830   -2.1750   -2.2620 C.ar    1  UNL1        0.0344
     18 N           3.3950   -0.9360   -2.2630 N.ar    1  UNL1       -0.2228
     19 C           2.6370    0.0200   -1.7250 C.ar    1  UNL1        0.2173
     20 N           3.0720    1.3360   -1.6850 N.pl3   1  UNL1       -0.3069
     21 C           4.5070    1.5250   -1.5150 C.3     1  UNL1        0.0457
     22 C           5.1970    1.6470   -2.8780 C.3     1  UNL1       -0.0424
     23 C           4.7360    2.7820   -0.6820 C.ar    1  UNL1       -0.0275
     24 C           5.4090    2.6980    0.5470 C.ar    1  UNL1       -0.0568
     25 C           5.6190    3.8400    1.3240 C.ar    1  UNL1       -0.0614
     26 C           5.1570    5.0790    0.8850 C.ar    1  UNL1       -0.0617
     27 C           4.4820    5.1780   -0.3300 C.ar    1  UNL1       -0.0614
     28 C           4.2710    4.0390   -1.1070 C.ar    1  UNL1       -0.0568
     29 N           1.4310   -0.2000   -1.1890 N.ar    1  UNL1       -0.1991
     30 H          -2.5180   -0.1320   -1.5450 H       1  UNL1        0.0245
     31 H          -2.1640    1.3110   -0.5800 H       1  UNL1        0.0245
     32 H          -1.0410    0.7870   -1.8450 H       1  UNL1        0.0245
     33 H          -0.2140    0.1770    0.4830 H       1  UNL1        0.0466
     34 H          -1.6910   -0.6840    0.7600 H       1  UNL1        0.0466
     35 H          -1.4680   -3.3200    1.8930 H       1  UNL1        0.0625
     36 H          -3.6460   -3.5410    3.0720 H       1  UNL1        0.0618
     37 H          -5.7610   -3.3110    1.8200 H       1  UNL1        0.0620
     38 H          -6.5060   -3.7780   -1.2500 H       1  UNL1        0.0349
     39 H          -6.9560   -1.1660    0.3960 H       1  UNL1        0.0271
     40 H          -8.2100   -2.1180   -0.5150 H       1  UNL1        0.0271
     41 H          -5.6750   -0.8090   -1.7240 H       1  UNL1        0.0271
     42 H          -6.9200   -1.7600   -2.6460 H       1  UNL1        0.0271
     43 H          -3.5550   -2.6690   -1.8170 H       1  UNL1        0.0628
     44 H           1.3260   -3.5190   -1.7660 H       1  UNL1        0.0667
     45 H           3.5130   -2.9400   -2.7040 H       1  UNL1        0.0832
     46 H           2.5040    1.7850   -0.9740 H       1  UNL1        0.1495
     47 H           4.9540    0.6800   -0.9730 H       1  UNL1        0.0545
     48 H           5.1150    0.7180   -3.4510 H       1  UNL1        0.0251
     49 H           6.2630    1.8710   -2.7570 H       1  UNL1        0.0251
     50 H           4.7560    2.4410   -3.4910 H       1  UNL1        0.0251
     51 H           5.7760    1.7410    0.9110 H       1  UNL1        0.0621
     52 H           6.1440    3.7620    2.2720 H       1  UNL1        0.0618
     53 H           5.3210    5.9660    1.4900 H       1  UNL1        0.0618
     54 H           4.1180    6.1430   -0.6730 H       1  UNL1        0.0618
     55 H           3.7340    4.1310   -2.0500 H       1  UNL1        0.0621
@<TRIPOS>BOND
     1     1     2    1
     2     1    30    1
     3     1    31    1
     4     1    32    1
     5     2     3    1
     6     2    33    1
     7     2    34    1
     8     3     4   am
     9     3    15    1
    10     4     5    2
    11     4     6    1
    12     6     7   ar
    13     6    14   ar
    14     7     8   ar
    15     7    35    1
    16     8     9   ar
    17     8    36    1
    18     9    10   ar
    19     9    37    1
    20    10    11    1
    21    10    14   ar
    22    11    12    1
    23    11    13    1
    24    11    38    1
    25    12    13    1
    26    12    39    1
    27    12    40    1
    28    13    41    1
    29    13    42    1
    30    14    43    1
    31    15    16   ar
    32    15    29   ar
    33    16    17   ar
    34    16    44    1
    35    17    18   ar
    36    17    45    1
    37    18    19   ar
    38    19    20    1
    39    19    29   ar
    40    20    21    1
    41    20    46    1
    42    21    22    1
    43    21    23    1
    44    21    47    1
    45    22    48    1
    46    22    49    1
    47    22    50    1
    48    23    24   ar
    49    23    28   ar
    50    24    25   ar
    51    24    51    1
    52    25    26   ar
    53    25    52    1
    54    26    27   ar
    55    26    53    1
    56    27    28   ar
    57    27    54    1
    58    28    55    1
@<TRIPOS>MOLECULE
AD3CC00733664-I01-C06
 65 68 0 0 0
SMALL
GASTEIGER

@<TRIPOS>ATOM
      1 C          -0.7880    3.1220    4.2690 C.3     1  UNL1       -0.0635
      2 C          -1.6980    1.9260    4.5200 C.3     1  UNL1       -0.0352
      3 C          -1.4080    0.7510    3.5650 C.3     1  UNL1        0.0464
      4 C          -2.5070   -0.3310    3.6920 C.3     1  UNL1        0.0656
      5 O          -2.5420   -0.8400    5.0310 O.3     1  UNL1       -0.3812
      6 C          -3.4860   -1.8940    5.1660 C.3     1  UNL1        0.0365
      7 N          -0.0960    0.1910    3.9100 N.pl3   1  UNL1       -0.3084
      8 C           0.4390   -0.6880    2.9810 C.ar    1  UNL1        0.2171
      9 N           1.0030   -1.7870    3.4780 N.ar    1  UNL1       -0.2228
     10 C           1.5110   -2.6480    2.5870 C.ar    1  UNL1        0.0344
     11 C           1.4780   -2.4480    1.2260 C.ar    1  UNL1       -0.0030
     12 C           0.8950   -1.2800    0.7820 C.ar    1  UNL1        0.1328
     13 N           0.7950   -0.9250   -0.6130 N.am    1  UNL1       -0.2517
     14 C           0.2370    0.4190   -0.9030 C.3     1  UNL1        0.0244
     15 C           1.3230    1.4800   -1.2100 C.3     1  UNL1       -0.0225
     16 C           2.1220    1.9260    0.0260 C.3     1  UNL1       -0.0361
     17 C           1.3130    2.8300    0.9540 C.3     1  UNL1       -0.0038
     18 N           0.7810    3.9900    0.2360 N.3     1  UNL1       -0.3160
     19 C          -0.0690    3.5910   -0.8820 C.3     1  UNL1       -0.0038
     20 C           0.7020    2.7210   -1.8750 C.3     1  UNL1       -0.0361
     21 C           1.3030   -1.7420   -1.6370 C.2     1  UNL1        0.2519
     22 O           2.0170   -2.7330   -1.5080 O.2     1  UNL1       -0.2696
     23 C           0.9570   -1.4190   -3.0390 C.ar    1  UNL1        0.0378
     24 C          -0.3650   -1.6040   -3.4940 C.ar    1  UNL1       -0.0461
     25 C          -0.6950   -1.3180   -4.8200 C.ar    1  UNL1       -0.0190
     26 C           0.3150   -0.8850   -5.6570 C.ar    1  UNL1        0.1238
     27 C           1.6220   -0.7290   -5.2200 C.ar    1  UNL1       -0.0018
     28 C           1.9710   -0.9980   -3.9090 C.ar    1  UNL1       -0.0429
     29 C           2.4480   -0.2050   -6.3310 C.3     1  UNL1        0.0101
     30 C           1.4860   -0.4660   -7.4910 C.3     1  UNL1        0.0937
     31 O           0.1350   -0.5620   -6.9770 O.3     1  UNL1       -0.4914
     32 N           0.3620   -0.4150    1.6720 N.ar    1  UNL1       -0.1991
     33 H          -1.0400    3.9360    4.9560 H       1  UNL1        0.0230
     34 H           0.2640    2.8660    4.4220 H       1  UNL1        0.0230
     35 H          -0.9080    3.4960    3.2470 H       1  UNL1        0.0230
     36 H          -2.7370    2.2530    4.3920 H       1  UNL1        0.0281
     37 H          -1.5860    1.6120    5.5650 H       1  UNL1        0.0281
     38 H          -1.4160    1.1390    2.5390 H       1  UNL1        0.0521
     39 H          -2.3120   -1.1560    2.9960 H       1  UNL1        0.0578
     40 H          -3.4840    0.1020    3.4480 H       1  UNL1        0.0578
     41 H          -3.4790   -2.2320    6.2060 H       1  UNL1        0.0523
     42 H          -4.4920   -1.5410    4.9190 H       1  UNL1        0.0523
     43 H          -3.2130   -2.7370    4.5230 H       1  UNL1        0.0523
     44 H          -0.1260   -0.3330    4.7840 H       1  UNL1        0.1493
     45 H           1.9650   -3.5410    3.0080 H       1  UNL1        0.0832
     46 H           1.9100   -3.2030    0.5890 H       1  UNL1        0.0667
     47 H          -0.4400    0.7520   -0.1100 H       1  UNL1        0.0472
     48 H          -0.4180    0.3300   -1.7740 H       1  UNL1        0.0472
     49 H           2.0370    1.0500   -1.9200 H       1  UNL1        0.0317
     50 H           2.5070    1.0640    0.5800 H       1  UNL1        0.0281
     51 H           3.0060    2.4800   -0.3160 H       1  UNL1        0.0281
     52 H           0.4960    2.2790    1.4270 H       1  UNL1        0.0424
     53 H           1.9640    3.1850    1.7610 H       1  UNL1        0.0424
     54 H           0.2450    4.5650    0.8860 H       1  UNL1        0.1219
     55 H          -0.4190    4.4920   -1.3970 H       1  UNL1        0.0424
     56 H          -0.9610    3.0690   -0.5170 H       1  UNL1        0.0424
     57 H           1.5050    3.3210   -2.3230 H       1  UNL1        0.0281
     58 H           0.0430    2.4260   -2.7000 H       1  UNL1        0.0281
     59 H          -1.1300   -1.9710   -2.8140 H       1  UNL1        0.0626
     60 H          -1.7070   -1.4420   -5.1900 H       1  UNL1        0.0654
     61 H           2.9920   -0.8820   -3.5600 H       1  UNL1        0.0629
     62 H           2.6250    0.8670   -6.1980 H       1  UNL1        0.0347
     63 H           3.3980   -0.7290   -6.4630 H       1  UNL1        0.0347
     64 H           1.7200   -1.4150   -7.9920 H       1  UNL1        0.0700
     65 H           1.5320    0.3310   -8.2400 H       1  UNL1        0.0700
@<TRIPOS>BOND
     1     1     2    1
     2     1    33    1
     3     1    34    1
     4     1    35    1
     5     2     3    1
     6     2    36    1
     7     2    37    1
     8     3     4    1
     9     3     7    1
    10     3    38    1
    11     4     5    1
    12     4    39    1
    13     4    40    1
    14     5     6    1
    15     6    41    1
    16     6    42    1
    17     6    43    1
    18     7     8    1
    19     7    44    1
    20     8     9   ar
    21     8    32   ar
    22     9    10   ar
    23    10    11   ar
    24    10    45    1
    25    11    12   ar
    26    11    46    1
    27    12    13    1
    28    12    32   ar
    29    13    14    1
    30    13    21   am
    31    14    15    1
    32    14    47    1
    33    14    48    1
    34    15    16    1
    35    15    20    1
    36    15    49    1
    37    16    17    1
    38    16    50    1
    39    16    51    1
    40    17    18    1
    41    17    52    1
    42    17    53    1
    43    18    19    1
    44    18    54    1
    45    19    20    1
    46    19    55    1
    47    19    56    1
    48    20    57    1
    49    20    58    1
    50    21    22    2
    51    21    23    1
    52    23    24   ar
    53    23    28   ar
    54    24    25   ar
    55    24    59    1
    56    25    26   ar
    57    25    60    1
    58    26    27   ar
    59    26    31    1
    60    27    28   ar
    61    27    29    1
    62    28    61    1
    63    29    30    1
    64    29    62    1
    65    29    63    1
    66    30    31    1
    67    30    64    1
    68    30    65    1
@<TRIPOS>MOLECULE
AD3CC00734197-I00-C02
 54 56 0 0 0
SMALL
GASTEIGER

@<TRIPOS>ATOM
      1 C          -0.2750   -1.5860   -2.0950 C.3     1  UNL1       -0.0488
      2 C          -0.0110   -0.1390   -1.6950 C.3     1  UNL1        0.0186
      3 N           1.3910    0.0820   -1.2840 N.am    1  UNL1       -0.2522
      4 C           2.4000    0.3550   -2.2190 C.2     1  UNL1        0.2519
      5 O           3.6120    0.2700   -2.0400 O.2     1  UNL1       -0.2696
      6 C           1.9990    0.7860   -3.5740 C.ar    1  UNL1        0.0375
      7 C           2.2140   -0.0690   -4.6530 C.ar    1  UNL1       -0.0494
      8 C           1.8530    0.3430   -5.9350 C.ar    1  UNL1       -0.0579
      9 C           1.2920    1.6140   -6.1520 C.ar    1  UNL1       -0.0475
     10 C           0.9260    2.0240   -7.5530 C.3     1  UNL1       -0.0395
     11 C           1.1080    2.4900   -5.0600 C.ar    1  UNL1       -0.0468
     12 C           0.5340    3.8680   -5.2470 C.3     1  UNL1       -0.0394
     13 C           1.4710    2.0670   -3.7720 C.ar    1  UNL1       -0.0464
     14 C           1.6830   -0.2080    0.0980 C.ar    1  UNL1        0.1328
     15 C           2.9170    0.0230    0.6650 C.ar    1  UNL1       -0.0030
     16 C           3.0550   -0.2950    1.9950 C.ar    1  UNL1        0.0344
     17 N           2.0640   -0.7960    2.7470 N.ar    1  UNL1       -0.2228
     18 C           0.8910   -0.9720    2.1390 C.ar    1  UNL1        0.2173
     19 N          -0.1170   -1.4950    2.9330 N.pl3   1  UNL1       -0.3069
     20 C          -1.4590   -0.9920    2.6810 C.3     1  UNL1        0.0457
     21 C          -2.4650   -2.0070    3.2370 C.3     1  UNL1       -0.0424
     22 C          -1.6390    0.3910    3.2940 C.ar    1  UNL1       -0.0275
     23 C          -1.6810    1.5180    2.4560 C.ar    1  UNL1       -0.0568
     24 C          -1.8290    2.8000    2.9880 C.ar    1  UNL1       -0.0614
     25 C          -1.9310    2.9760    4.3650 C.ar    1  UNL1       -0.0617
     26 C          -1.8780    1.8710    5.2120 C.ar    1  UNL1       -0.0614
     27 C          -1.7280    0.5880    4.6820 C.ar    1  UNL1       -0.0568
     28 N           0.6690   -0.6920    0.8480 N.ar    1  UNL1       -0.1991
     29 H          -1.3160   -1.7050   -2.4120 H       1  UNL1        0.0245
     30 H          -0.0940   -2.2730   -1.2630 H       1  UNL1        0.0245
     31 H           0.3700   -1.8930   -2.9240 H       1  UNL1        0.0245
     32 H          -0.2640    0.5010   -2.5430 H       1  UNL1        0.0466
     33 H          -0.6940    0.1750   -0.8970 H       1  UNL1        0.0466
     34 H           2.6610   -1.0470   -4.4980 H       1  UNL1        0.0625
     35 H           2.0220   -0.3330   -6.7710 H       1  UNL1        0.0620
     36 H           1.5550    2.8570   -7.8800 H       1  UNL1        0.0278
     37 H           1.0670    1.2010   -8.2620 H       1  UNL1        0.0278
     38 H          -0.1270    2.3180   -7.6020 H       1  UNL1        0.0278
     39 H           1.1490    4.4460   -5.9440 H       1  UNL1        0.0278
     40 H           0.5000    4.4210   -4.3020 H       1  UNL1        0.0278
     41 H          -0.4900    3.8030   -5.6290 H       1  UNL1        0.0278
     42 H           1.3480    2.7310   -2.9190 H       1  UNL1        0.0628
     43 H           3.7610    0.4440    0.1410 H       1  UNL1        0.0667
     44 H           4.0000   -0.1460    2.5090 H       1  UNL1        0.0832
     45 H           0.2060   -1.3780    3.8870 H       1  UNL1        0.1495
     46 H          -1.6670   -0.9400    1.6030 H       1  UNL1        0.0545
     47 H          -3.4940   -1.6490    3.1150 H       1  UNL1        0.0251
     48 H          -2.3020   -2.2160    4.3000 H       1  UNL1        0.0251
     49 H          -2.3740   -2.9620    2.7070 H       1  UNL1        0.0251
     50 H          -1.5860    1.4010    1.3780 H       1  UNL1        0.0621
     51 H          -1.8590    3.6620    2.3260 H       1  UNL1        0.0618
     52 H          -2.0430    3.9740    4.7800 H       1  UNL1        0.0618
     53 H          -1.9460    2.0090    6.2880 H       1  UNL1        0.0618
     54 H          -1.6750   -0.2550    5.3670 H       1  UNL1        0.0621
@<TRIPOS>BOND
     1     1     2    1
     2     1    29    1
     3     1    30    1
     4     1    31    1
     5     2     3    1
     6     2    32    1
     7     2    33    1
     8     3     4   am
     9     3    14    1
    10     4     5    2
    11     4     6    1
    12     6     7   ar
    13     6    13   ar
    14     7     8   ar
    15     7    34    1
    16     8     9   ar
    17     8    35    1
    18     9    10    1
    19     9    11   ar
    20    10    36    1
    21    10    37    1
    22    10    38    1
    23    11    12    1
    24    11    13   ar
    25    12    39    1
    26    12    40    1
    27    12    41    1
    28    13    42    1
    29    14    15   ar
    30    14    28   ar
    31    15    16   ar
    32    15    43    1
    33    16    17   ar
    34    16    44    1
    35    17    18   ar
    36    18    19    1
    37    18    28   ar
    38    19    20    1
    39    19    45    1
    40    20    21    1
    41    20    22    1
    42    20    46    1
    43    21    47    1
    44    21    48    1
    45    21    49    1
    46    22    23   ar
    47    22    27   ar
    48    23    24   ar
    49    23    50    1
    50    24    25   ar
    51    24    51    1
    52    25    26   ar
    53    25    52    1
    54    26    27   ar
    55    26    53    1
    56    27    54    1
@<TRIPOS>MOLECULE
AD3CC00747744-I00-C00
 40 42 0 0 0
SMALL
GASTEIGER

@<TRIPOS>ATOM
      1 O          -2.0210    1.0230    2.3890 O.2     1  UNL1       -0.2686
      2 C          -0.9920    0.6150    1.8530 C.2     1  UNL1        0.2606
      3 N          -0.6740   -0.7200    1.8220 N.am    1  UNL1       -0.3059
      4 C          -1.5670   -1.7210    2.3600 C.3     1  UNL1        0.0406
      5 C          -2.5900   -2.1550    1.3450 C.ar    1  UNL1        0.0111
      6 C          -2.2810   -3.2130    0.4710 C.ar    1  UNL1       -0.0536
      7 C          -3.2140   -3.6630   -0.4670 C.ar    1  UNL1       -0.0612
      8 C          -4.4670   -3.0630   -0.5460 C.ar    1  UNL1       -0.0583
      9 C          -4.7840   -2.0060    0.3050 C.ar    1  UNL1       -0.0199
     10 C          -3.8470   -1.5480    1.2300 C.ar    1  UNL1        0.1215
     11 O          -4.2380   -0.4930    2.0050 O.3     1  UNL1       -0.5064
     12 C          -0.0590    1.4960    1.1880 C.ar    1  UNL1        0.1025
     13 C           1.1910    1.2820    0.6280 C.ar    1  UNL1       -0.0211
     14 C           1.6740    2.5140    0.0880 C.ar    1  UNL1        0.0403
     15 C           2.9310    2.8290   -0.5910 C.2     1  UNL1        0.1973
     16 O           3.3010    3.9860   -0.7820 O.2     1  UNL1       -0.2865
     17 C           3.8320    1.7420   -1.0200 C.ar    1  UNL1        0.0574
     18 C           5.1930    1.8330   -0.7000 C.ar    1  UNL1       -0.0481
     19 C           6.0750    0.8310   -1.1100 C.ar    1  UNL1       -0.0609
     20 C           5.6050   -0.2550   -1.8510 C.ar    1  UNL1       -0.0590
     21 C           4.2530   -0.3340   -2.1900 C.ar    1  UNL1       -0.0257
     22 C           3.3750    0.6670   -1.7790 C.ar    1  UNL1        0.1342
     23 F           2.0900    0.5740   -2.1480 F       1  UNL1       -0.2047
     24 C           0.6970    3.4520    0.3700 C.ar    1  UNL1        0.0131
     25 N          -0.3320    2.8360    1.0240 N.ar    1  UNL1       -0.3564
     26 H           0.0480   -1.0270    1.1880 H       1  UNL1        0.1494
     27 H          -2.0500   -1.3470    3.2690 H       1  UNL1        0.0513
     28 H          -0.9500   -2.5750    2.6640 H       1  UNL1        0.0513
     29 H          -1.3120   -3.7040    0.5230 H       1  UNL1        0.0622
     30 H          -2.9640   -4.4860   -1.1320 H       1  UNL1        0.0618
     31 H          -5.1980   -3.4130   -1.2700 H       1  UNL1        0.0619
     32 H          -5.7580   -1.5290    0.2430 H       1  UNL1        0.0654
     33 H          -3.4560    0.0520    2.2390 H       1  UNL1        0.2921
     34 H           1.7140    0.3350    0.6120 H       1  UNL1        0.0647
     35 H           5.5660    2.6870   -0.1370 H       1  UNL1        0.0625
     36 H           7.1320    0.9020   -0.8590 H       1  UNL1        0.0618
     37 H           6.2940   -1.0310   -2.1760 H       1  UNL1        0.0618
     38 H           3.8810   -1.1640   -2.7830 H       1  UNL1        0.0646
     39 H           0.6600    4.5130    0.1540 H       1  UNL1        0.0814
     40 H          -1.1810    3.2830    1.3510 H       1  UNL1        0.1655
@<TRIPOS>BOND
     1     1     2    2
     2     2     3   am
     3     2    12    1
     4     3     4    1
     5     3    26    1
     6     4     5    1
     7     4    27    1
     8     4    28    1
     9     5     6   ar
    10     5    10   ar
    11     6     7   ar
    12     6    29    1
    13     7     8   ar
    14     7    30    1
    15     8     9   ar
    16     8    31    1
    17     9    10   ar
    18     9    32    1
    19    10    11    1
    20    11    33    1
    21    12    13   ar
    22    12    25   ar
    23    13    14   ar
    24    13    34    1
    25    14    15    1
    26    14    24   ar
    27    15    16    2
    28    15    17    1
    29    17    18   ar
    30    17    22   ar
    31    18    19   ar
    32    18    35    1
    33    19    20   ar
    34    19    36    1
    35    20    21   ar
    36    20    37    1
    37    21    22   ar
    38    21    38    1
    39    22    23    1
    40    24    25   ar
    41    24    39    1
    42    25    40    1
@<TRIPOS>MOLECULE
AD3CC00747773-I00-C00
 36 38 0 0 0
SMALL
GASTEIGER

@<TRIPOS>ATOM
      1 O           2.3730   -3.5230    0.4280 O.2     1  UNL1       -0.2683
      2 C           1.9270   -2.8550   -0.4960 C.2     1  UNL1        0.2647
      3 N           2.2190   -3.0340   -1.8300 N.am    1  UNL1       -0.2757
      4 C           2.9720   -4.0710   -2.4280 C.ar    1  UNL1        0.1049
      5 C           3.4050   -3.8460   -3.7420 C.ar    1  UNL1        0.1473
      6 F           3.0930   -2.6880   -4.3470 F       1  UNL1       -0.2034
      7 C           4.1620   -4.7820   -4.4450 C.ar    1  UNL1       -0.0244
      8 C           4.4960   -5.9890   -3.8390 C.ar    1  UNL1       -0.0562
      9 C           4.0550   -6.2480   -2.5430 C.ar    1  UNL1       -0.0244
     10 C           3.2950   -5.3000   -1.8480 C.ar    1  UNL1        0.1473
     11 F           2.8370   -5.6610   -0.6440 F       1  UNL1       -0.2034
     12 C           1.0580   -1.7220   -0.2250 C.ar    1  UNL1        0.1028
     13 C           0.3720   -0.8420   -1.0450 C.ar    1  UNL1       -0.0211
     14 C          -0.3370    0.0970   -0.2310 C.ar    1  UNL1        0.0403
     15 C          -1.1910    1.1770   -0.7190 C.2     1  UNL1        0.1973
     16 O          -1.5370    1.2460   -1.8970 O.2     1  UNL1       -0.2865
     17 C          -1.7060    2.1980    0.2120 C.ar    1  UNL1        0.0574
     18 C          -3.0790    2.4740    0.2170 C.ar    1  UNL1       -0.0481
     19 C          -3.5900    3.4500    1.0760 C.ar    1  UNL1       -0.0609
     20 C          -2.7310    4.1600    1.9170 C.ar    1  UNL1       -0.0590
     21 C          -1.3600    3.9020    1.8930 C.ar    1  UNL1       -0.0257
     22 C          -0.8520    2.9280    1.0360 C.ar    1  UNL1        0.1342
     23 F           0.4730    2.7290    1.0100 F       1  UNL1       -0.2047
     24 C          -0.0780   -0.2690    1.0780 C.ar    1  UNL1        0.0131
     25 N           0.7610   -1.3500    1.0690 N.ar    1  UNL1       -0.3564
     26 H           1.9820   -2.2700   -2.4520 H       1  UNL1        0.1553
     27 H           4.4840   -4.5600   -5.4580 H       1  UNL1        0.0647
     28 H           5.0850   -6.7290   -4.3750 H       1  UNL1        0.0619
     29 H           4.2830   -7.1950   -2.0610 H       1  UNL1        0.0647
     30 H           0.3540   -0.8460   -2.1280 H       1  UNL1        0.0647
     31 H          -3.7490    1.9310   -0.4480 H       1  UNL1        0.0625
     32 H          -4.6570    3.6620    1.0830 H       1  UNL1        0.0618
     33 H          -3.1290    4.9230    2.5820 H       1  UNL1        0.0618
     34 H          -0.6810    4.4610    2.5300 H       1  UNL1        0.0646
     35 H          -0.4160    0.1410    2.0210 H       1  UNL1        0.0814
     36 H           1.1230   -1.8350    1.8830 H       1  UNL1        0.1655
@<TRIPOS>BOND
     1     1     2    2
     2     2     3   am
     3     2    12    1
     4     3     4    1
     5     3    26    1
     6     4     5   ar
     7     4    10   ar
     8     5     6    1
     9     5     7   ar
    10     7     8   ar
    11     7    27    1
    12     8     9   ar
    13     8    28    1
    14     9    10   ar
    15     9    29    1
    16    10    11    1
    17    12    13   ar
    18    12    25   ar
    19    13    14   ar
    20    13    30    1
    21    14    15    1
    22    14    24   ar
    23    15    16    2
    24    15    17    1
    25    17    18   ar
    26    17    22   ar
    27    18    19   ar
    28    18    31    1
    29    19    20   ar
    30    19    32    1
    31    20    21   ar
    32    20    33    1
    33    21    22   ar
    34    21    34    1
    35    22    23    1
    36    24    25   ar
    37    24    35    1
    38    25    36    1
@<TRIPOS>MOLECULE
AD3CC00778535-I00-C00
 81 85 0 0 0
SMALL
GASTEIGER

@<TRIPOS>ATOM
      1 C          -5.1440    1.0690    0.9160 C.3     1  UNL1        0.0789
      2 O          -4.0960    1.4030    1.8370 O.3     1  UNL1       -0.4925
      3 C          -3.3450    2.4440    1.3330 C.ar    1  UNL1        0.1533
      4 C          -2.1830    2.1290    0.6060 C.ar    1  UNL1        0.0769
      5 N          -1.8480    0.7660    0.4800 N.am    1  UNL1       -0.2758
      6 C          -0.7920    0.1920   -0.1920 C.2     1  UNL1        0.2887
      7 O           0.0840    0.7400   -0.8390 O.2     1  UNL1       -0.2663
      8 C          -0.8110   -1.3350   -0.0540 C.2     1  UNL1        0.2481
      9 O          -1.8050   -1.8550    0.4460 O.2     1  UNL1       -0.2817
     10 C           0.3620   -2.1320   -0.4880 C.ar    1  UNL1        0.0348
     11 C           1.6270   -1.7110   -0.0550 C.ar    1  UNL1       -0.0467
     12 C           2.7630   -2.4360   -0.4000 C.ar    1  UNL1       -0.0186
     13 C           2.6470   -3.5990   -1.1630 C.ar    1  UNL1        0.1283
     14 O           3.7390   -4.3380   -1.5520 O.3     1  UNL1       -0.4901
     15 C           4.8360   -4.4190   -0.6320 C.3     1  UNL1        0.1023
     16 C           6.0210   -3.5990   -1.1650 C.3     1  UNL1        0.0333
     17 N           7.1450   -3.4860   -0.2170 N.3     1  UNL1       -0.2948
     18 C           8.1490   -2.5270   -0.7350 C.3     1  UNL1        0.0225
     19 C           9.3690   -2.4280    0.1940 C.3     1  UNL1        0.0604
     20 O           9.9890   -3.7080    0.3670 O.3     1  UNL1       -0.3772
     21 C           9.0470   -4.6360    0.9180 C.3     1  UNL1        0.0604
     22 C           7.8150   -4.7860    0.0100 C.3     1  UNL1        0.0225
     23 C           1.3800   -4.0320   -1.6290 C.ar    1  UNL1        0.0245
     24 C           1.2460   -5.1880   -2.4300 C.ar    1  UNL1       -0.0505
     25 C           0.0050   -5.6250   -2.8920 C.ar    1  UNL1       -0.0611
     26 C          -1.1370   -4.9130   -2.5630 C.ar    1  UNL1       -0.0611
     27 C          -1.0340   -3.7670   -1.7730 C.ar    1  UNL1       -0.0532
     28 C           0.2120   -3.2990   -1.2840 C.ar    1  UNL1       -0.0034
     29 C          -1.4170    3.1630    0.0540 C.ar    1  UNL1       -0.0332
     30 C          -1.7680    4.5160    0.2260 C.ar    1  UNL1       -0.0393
     31 C          -0.9470    5.6710   -0.3770 C.3     1  UNL1       -0.0126
     32 C          -1.8460    6.5240   -1.2990 C.3     1  UNL1       -0.0560
     33 C          -0.3950    6.5600    0.7580 C.3     1  UNL1       -0.0560
     34 C           0.2610    5.2090   -1.2240 C.3     1  UNL1       -0.0560
     35 C          -2.9140    4.7960    0.9990 C.ar    1  UNL1       -0.0423
     36 C          -3.6940    3.7780    1.5710 C.ar    1  UNL1        0.0804
     37 C          -4.8560    4.1990    2.4090 C.2     1  UNL1        0.2479
     38 O          -5.3580    5.3070    2.2460 O.2     1  UNL1       -0.2701
     39 N          -5.2870    3.3000    3.3630 N.am    1  UNL1       -0.3084
     40 C          -6.3950    3.5590    4.2220 C.3     1  UNL1        0.0235
     41 C          -7.7450    2.9700    3.9220 C.3     1  UNL1       -0.0328
     42 C          -6.9560    2.4690    5.0950 C.3     1  UNL1       -0.0328
     43 H          -4.7350    0.7130   -0.0360 H       1  UNL1        0.0660
     44 H          -5.7280    0.2580    1.3590 H       1  UNL1        0.0660
     45 H          -5.8150    1.9180    0.7470 H       1  UNL1        0.0660
     46 H          -2.4690    0.1060    0.9490 H       1  UNL1        0.1553
     47 H           1.7440   -0.8150    0.5510 H       1  UNL1        0.0626
     48 H           3.7290   -2.0640   -0.0720 H       1  UNL1        0.0654
     49 H           5.1120   -5.4780   -0.5850 H       1  UNL1        0.0709
     50 H           4.5580   -4.1300    0.3890 H       1  UNL1        0.0709
     51 H           6.3500   -4.0210   -2.1240 H       1  UNL1        0.0460
     52 H           5.6530   -2.5930   -1.4010 H       1  UNL1        0.0460
     53 H           7.6990   -1.5320   -0.8280 H       1  UNL1        0.0449
     54 H           8.4860   -2.8420   -1.7310 H       1  UNL1        0.0449
     55 H          10.1140   -1.7560   -0.2440 H       1  UNL1        0.0572
     56 H           9.0910   -2.0230    1.1750 H       1  UNL1        0.0572
     57 H           8.7610   -4.3070    1.9250 H       1  UNL1        0.0572
     58 H           9.5540   -5.6010    1.0160 H       1  UNL1        0.0572
     59 H           7.1270   -5.4920    0.4880 H       1  UNL1        0.0449
     60 H           8.1310   -5.2150   -0.9500 H       1  UNL1        0.0449
     61 H           2.1270   -5.7660   -2.7060 H       1  UNL1        0.0625
     62 H          -0.0630   -6.5190   -3.5060 H       1  UNL1        0.0618
     63 H          -2.1090   -5.2450   -2.9170 H       1  UNL1        0.0618
     64 H          -1.9590   -3.2410   -1.5420 H       1  UNL1        0.0624
     65 H          -0.5300    2.9140   -0.5170 H       1  UNL1        0.0640
     66 H          -1.2750    7.3320   -1.7710 H       1  UNL1        0.0238
     67 H          -2.6720    6.9950   -0.7540 H       1  UNL1        0.0238
     68 H          -2.2840    5.9140   -2.0980 H       1  UNL1        0.0238
     69 H          -1.1930    7.0230    1.3480 H       1  UNL1        0.0238
     70 H           0.2270    5.9760    1.4480 H       1  UNL1        0.0238
     71 H           0.2220    7.3730    0.3590 H       1  UNL1        0.0238
     72 H          -0.0550    4.5870   -2.0700 H       1  UNL1        0.0238
     73 H           0.8040    6.0670   -1.6390 H       1  UNL1        0.0238
     74 H           0.9780    4.6350   -0.6260 H       1  UNL1        0.0238
     75 H          -3.2070    5.8310    1.1760 H       1  UNL1        0.0629
     76 H          -4.8130    2.4040    3.4310 H       1  UNL1        0.1493
     77 H          -6.3810    4.5610    4.6460 H       1  UNL1        0.0498
     78 H          -8.6140    3.5900    4.1140 H       1  UNL1        0.0284
     79 H          -7.8430    2.3280    3.0560 H       1  UNL1        0.0284
     80 H          -6.5310    1.4750    5.0310 H       1  UNL1        0.0284
     81 H          -7.2930    2.7440    6.0880 H       1  UNL1        0.0284
@<TRIPOS>BOND
     1     1     2    1
     2     1    43    1
     3     1    44    1
     4     1    45    1
     5     2     3    1
     6     3     4   ar
     7     3    36   ar
     8     4     5    1
     9     4    29   ar
    10     5     6   am
    11     5    46    1
    12     6     7    2
    13     6     8    1
    14     8     9    2
    15     8    10    1
    16    10    11   ar
    17    10    28   ar
    18    11    12   ar
    19    11    47    1
    20    12    13   ar
    21    12    48    1
    22    13    14    1
    23    13    23   ar
    24    14    15    1
    25    15    16    1
    26    15    49    1
    27    15    50    1
    28    16    17    1
    29    16    51    1
    30    16    52    1
    31    17    18    1
    32    17    22    1
    33    18    19    1
    34    18    53    1
    35    18    54    1
    36    19    20    1
    37    19    55    1
    38    19    56    1
    39    20    21    1
    40    21    22    1
    41    21    57    1
    42    21    58    1
    43    22    59    1
    44    22    60    1
    45    23    24   ar
    46    23    28   ar
    47    24    25   ar
    48    24    61    1
    49    25    26   ar
    50    25    62    1
    51    26    27   ar
    52    26    63    1
    53    27    28   ar
    54    27    64    1
    55    29    30   ar
    56    29    65    1
    57    30    31    1
    58    30    35   ar
    59    31    32    1
    60    31    33    1
    61    31    34    1
    62    32    66    1
    63    32    67    1
    64    32    68    1
    65    33    69    1
    66    33    70    1
    67    33    71    1
    68    34    72    1
    69    34    73    1
    70    34    74    1
    71    35    36   ar
    72    35    75    1
    73    36    37    1
    74    37    38    2
    75    37    39   am
    76    39    40    1
    77    39    76    1
    78    40    41    1
    79    40    42    1
    80    40    77    1
    81    41    42    1
    82    41    78    1
    83    41    79    1
    84    42    80    1
    85    42    81    1
@<TRIPOS>MOLECULE
AD3CC00778865-I00-C01
 71 74 0 0 0
SMALL
GASTEIGER

@<TRIPOS>ATOM
      1 C          -0.2110    2.0740   -5.4380 C.3     1  UNL1       -0.0546
      2 C          -1.1450    1.0280   -4.7970 C.3     1  UNL1        0.0063
      3 C          -1.2220   -0.1870   -5.7460 C.3     1  UNL1       -0.0546
      4 C          -2.5610    1.6270   -4.6830 C.3     1  UNL1       -0.0546
      5 C          -0.6260    0.6490   -3.4190 C.ar    1  UNL1        0.0706
      6 C          -0.4520    1.4990   -2.3000 C.ar    1  UNL1        0.0021
      7 C           0.1370    0.7260   -1.3250 C.ar    1  UNL1        0.1299
      8 N           0.6970    1.0780   -0.0990 N.am    1  UNL1       -0.2538
      9 C           0.5950    2.3330    0.4780 C.2     1  UNL1        0.3092
     10 O           0.0230    3.2900   -0.0260 O.2     1  UNL1       -0.2521
     11 N           1.1700    2.3220    1.7430 N.am    1  UNL1       -0.2692
     12 C           1.2450    3.3820    2.6700 C.ar    1  UNL1        0.0348
     13 C           1.8510    3.1060    3.9030 C.ar    1  UNL1       -0.0404
     14 C           1.9540    4.0930    4.8860 C.ar    1  UNL1       -0.0600
     15 C           1.4520    5.3680    4.6450 C.ar    1  UNL1       -0.0616
     16 C           0.8530    5.6550    3.4210 C.ar    1  UNL1       -0.0600
     17 C           0.7510    4.6660    2.4360 C.ar    1  UNL1       -0.0404
     18 N           0.1090   -0.5790   -1.8270 N.ar    1  UNL1       -0.2181
     19 C           0.3650   -1.8030   -1.1430 C.ar    1  UNL1        0.0677
     20 C           0.7190   -2.9500   -1.8580 C.ar    1  UNL1       -0.0362
     21 C           1.0500   -4.1190   -1.1700 C.ar    1  UNL1       -0.0594
     22 C           1.0300   -4.1480    0.2290 C.ar    1  UNL1       -0.0569
     23 C           0.6280   -3.0230    0.9620 C.ar    1  UNL1       -0.0283
     24 C           0.6940   -3.0430    2.4730 C.3     1  UNL1        0.0369
     25 N          -0.1450   -2.0670    3.1390 N.am    1  UNL1       -0.3099
     26 C           0.2520   -0.7650    3.3740 C.2     1  UNL1        0.2305
     27 O           1.3280   -0.2940    3.0030 O.2     1  UNL1       -0.2741
     28 C          -0.8460    0.1050    3.9960 C.3     1  UNL1        0.0884
     29 N          -1.5840    0.7550    2.9310 N.am    1  UNL1       -0.3028
     30 C          -2.5240    0.0430    2.2140 C.2     1  UNL1        0.2445
     31 O          -2.8010   -1.1220    2.4890 O.2     1  UNL1       -0.2702
     32 C          -3.1260    0.7130    1.0290 C.ar    1  UNL1        0.0367
     33 C          -3.1640    2.1060    0.8940 C.ar    1  UNL1       -0.0496
     34 C          -3.7270    2.6820   -0.2480 C.ar    1  UNL1       -0.0610
     35 C          -4.2610    1.8730   -1.2500 C.ar    1  UNL1       -0.0617
     36 C          -4.2330    0.4860   -1.1170 C.ar    1  UNL1       -0.0610
     37 C          -3.6700   -0.0930    0.0210 C.ar    1  UNL1       -0.0496
     38 C           0.2620   -1.8740    0.2510 C.ar    1  UNL1       -0.0315
     39 N          -0.2150   -0.5950   -3.1460 N.ar    1  UNL1       -0.1691
     40 H           0.8120    1.6880   -5.5280 H       1  UNL1        0.0239
     41 H          -0.5540    2.3520   -6.4410 H       1  UNL1        0.0239
     42 H          -0.1630    2.9920   -4.8410 H       1  UNL1        0.0239
     43 H          -1.6050    0.1030   -6.7320 H       1  UNL1        0.0239
     44 H          -0.2360   -0.6410   -5.8990 H       1  UNL1        0.0239
     45 H          -1.8870   -0.9640   -5.3500 H       1  UNL1        0.0239
     46 H          -3.2580    0.9100   -4.2340 H       1  UNL1        0.0239
     47 H          -2.9560    1.9030   -5.6680 H       1  UNL1        0.0239
     48 H          -2.5700    2.5300   -4.0620 H       1  UNL1        0.0239
     49 H          -0.6480    2.5620   -2.2560 H       1  UNL1        0.0671
     50 H           1.2700    0.3940    0.3780 H       1  UNL1        0.1578
     51 H           1.5510    1.4340    2.0640 H       1  UNL1        0.1564
     52 H           2.2570    2.1190    4.1130 H       1  UNL1        0.0636
     53 H           2.4290    3.8660    5.8370 H       1  UNL1        0.0618
     54 H           1.5330    6.1400    5.4060 H       1  UNL1        0.0618
     55 H           0.4670    6.6520    3.2240 H       1  UNL1        0.0618
     56 H           0.2840    4.9380    1.4950 H       1  UNL1        0.0636
     57 H           0.7730   -2.9380   -2.9450 H       1  UNL1        0.0639
     58 H           1.3490   -5.0050   -1.7260 H       1  UNL1        0.0618
     59 H           1.3300   -5.0600    0.7410 H       1  UNL1        0.0621
     60 H           1.7340   -2.8830    2.7830 H       1  UNL1        0.0512
     61 H           0.3670   -4.0220    2.8400 H       1  UNL1        0.0512
     62 H          -1.1540   -2.2140    3.0810 H       1  UNL1        0.1491
     63 H          -0.3860    0.8720    4.6250 H       1  UNL1        0.0558
     64 H          -1.5180   -0.5020    4.6110 H       1  UNL1        0.0558
     65 H          -1.1970    1.6070    2.5430 H       1  UNL1        0.1495
     66 H          -2.7710    2.7650    1.6620 H       1  UNL1        0.0625
     67 H          -3.7430    3.7640   -0.3570 H       1  UNL1        0.0618
     68 H          -4.6950    2.3250   -2.1390 H       1  UNL1        0.0618
     69 H          -4.6440   -0.1450   -1.9010 H       1  UNL1        0.0618
     70 H          -3.6500   -1.1770    0.1130 H       1  UNL1        0.0625
     71 H          -0.1420   -1.0350    0.8020 H       1  UNL1        0.0642
@<TRIPOS>BOND
     1     2     1    1
     2     1    40    1
     3     1    41    1
     4     1    42    1
     5     2     3    1
     6     2     4    1
     7     2     5    1
     8     3    43    1
     9     3    44    1
    10     3    45    1
    11     4    46    1
    12     4    47    1
    13     4    48    1
    14     5     6   ar
    15     5    39   ar
    16     6     7   ar
    17     6    49    1
    18     7     8    1
    19     7    18   ar
    20     8     9   am
    21     8    50    1
    22     9    10    2
    23     9    11   am
    24    11    12    1
    25    11    51    1
    26    12    13   ar
    27    12    17   ar
    28    13    14   ar
    29    13    52    1
    30    14    15   ar
    31    14    53    1
    32    15    16   ar
    33    15    54    1
    34    16    17   ar
    35    16    55    1
    36    17    56    1
    37    18    19    1
    38    18    39   ar
    39    19    20   ar
    40    19    38   ar
    41    20    21   ar
    42    20    57    1
    43    21    22   ar
    44    21    58    1
    45    22    23   ar
    46    22    59    1
    47    23    24    1
    48    23    38   ar
    49    24    25    1
    50    24    60    1
    51    24    61    1
    52    25    26   am
    53    25    62    1
    54    26    27    2
    55    26    28    1
    56    28    29    1
    57    28    63    1
    58    28    64    1
    59    29    30   am
    60    29    65    1
    61    30    31    2
    62    30    32    1
    63    32    33   ar
    64    32    37   ar
    65    33    34   ar
    66    33    66    1
    67    34    35   ar
    68    34    67    1
    69    35    36   ar
    70    35    68    1
    71    36    37   ar
    72    36    69    1
    73    37    70    1
    74    38    71    1
@<TRIPOS>MOLECULE
AD3CC00778919-I01-C00
 67 69 0 0 0
SMALL
GASTEIGER

@<TRIPOS>ATOM
      1 C          -3.4840   -2.4180    2.8920 C.3     1  UNL1        0.0122
      2 C          -3.0240   -1.1910    3.6290 C.2     1  UNL1        0.2105
      3 O          -2.5740   -1.2340    4.7710 O.2     1  UNL1       -0.2761
      4 N          -3.1060   -0.0240    2.9050 N.am    1  UNL1       -0.3045
      5 C          -2.6060    1.2390    3.4480 C.3     1  UNL1        0.0965
      6 C          -3.2550    2.4130    2.7280 C.3     1  UNL1       -0.0381
      7 C          -1.0690    1.2590    3.2810 C.2     1  UNL1        0.2333
      8 O          -0.5050    1.8170    2.3380 O.2     1  UNL1       -0.2738
      9 N          -0.4160    0.4960    4.2330 N.am    1  UNL1       -0.3097
     10 C           0.9700    0.1010    4.1000 C.3     1  UNL1        0.0370
     11 C           1.0950   -0.9960    3.0720 C.ar    1  UNL1       -0.0283
     12 C           0.8720   -2.3380    3.3960 C.ar    1  UNL1       -0.0569
     13 C           0.8810   -3.3120    2.3950 C.ar    1  UNL1       -0.0594
     14 C           1.0460   -2.9460    1.0570 C.ar    1  UNL1       -0.0362
     15 C           1.2140   -1.5980    0.7160 C.ar    1  UNL1        0.0677
     16 N           1.2520   -1.2100   -0.6550 N.ar    1  UNL1       -0.2181
     17 N           1.5630   -2.1320   -1.6030 N.ar    1  UNL1       -0.1691
     18 C           1.6980   -1.4380   -2.7380 C.ar    1  UNL1        0.0706
     19 C           2.1280   -2.1080   -4.0340 C.3     1  UNL1        0.0063
     20 C           2.5120   -3.5890   -3.8260 C.3     1  UNL1       -0.0546
     21 C           0.9780   -2.0530   -5.0590 C.3     1  UNL1       -0.0546
     22 C           3.3560   -1.3820   -4.6210 C.3     1  UNL1       -0.0546
     23 C           1.3460   -0.0820   -2.5480 C.ar    1  UNL1        0.0021
     24 C           0.9630    0.0340   -1.2290 C.ar    1  UNL1        0.1299
     25 N           0.3760    1.1000   -0.5510 N.am    1  UNL1       -0.2538
     26 C           0.0730    2.3260   -1.1270 C.2     1  UNL1        0.3092
     27 O           0.2300    2.6020   -2.3090 O.2     1  UNL1       -0.2521
     28 N          -0.4190    3.1880   -0.1550 N.am    1  UNL1       -0.2692
     29 C          -0.8910    4.5050   -0.3260 C.ar    1  UNL1        0.0348
     30 C          -1.2020    5.2250    0.8350 C.ar    1  UNL1       -0.0404
     31 C          -1.6870    6.5330    0.7560 C.ar    1  UNL1       -0.0600
     32 C          -1.8670    7.1330   -0.4870 C.ar    1  UNL1       -0.0616
     33 C          -1.5630    6.4240   -1.6470 C.ar    1  UNL1       -0.0600
     34 C          -1.0770    5.1150   -1.5670 C.ar    1  UNL1       -0.0404
     35 C           1.3180   -0.6480    1.7340 C.ar    1  UNL1       -0.0315
     36 H          -2.6100   -2.9910    2.5710 H       1  UNL1        0.0322
     37 H          -4.1010   -3.0260    3.5580 H       1  UNL1        0.0322
     38 H          -4.0820   -2.1570    2.0140 H       1  UNL1        0.0322
     39 H          -3.1890   -0.1010    1.8980 H       1  UNL1        0.1494
     40 H          -2.8450    1.2930    4.5170 H       1  UNL1        0.0592
     41 H          -2.8760    3.3640    3.1140 H       1  UNL1        0.0252
     42 H          -3.0560    2.3850    1.6500 H       1  UNL1        0.0252
     43 H          -4.3420    2.3970    2.8620 H       1  UNL1        0.0252
     44 H          -1.0100   -0.1420    4.7670 H       1  UNL1        0.1491
     45 H           1.3190   -0.2460    5.0780 H       1  UNL1        0.0512
     46 H           1.5700    0.9730    3.8180 H       1  UNL1        0.0512
     47 H           0.6830   -2.6330    4.4270 H       1  UNL1        0.0621
     48 H           0.7250   -4.3570    2.6530 H       1  UNL1        0.0618
     49 H           1.0040   -3.7150    0.2880 H       1  UNL1        0.0639
     50 H           1.6670   -4.1730   -3.4420 H       1  UNL1        0.0239
     51 H           2.8300   -4.0530   -4.7670 H       1  UNL1        0.0239
     52 H           3.3380   -3.6920   -3.1120 H       1  UNL1        0.0239
     53 H           0.0820   -2.5550   -4.6750 H       1  UNL1        0.0239
     54 H           1.2590   -2.5410   -5.9990 H       1  UNL1        0.0239
     55 H           0.6980   -1.0200   -5.2960 H       1  UNL1        0.0239
     56 H           3.6970   -1.8610   -5.5460 H       1  UNL1        0.0239
     57 H           4.1940   -1.3860   -3.9130 H       1  UNL1        0.0239
     58 H           3.1320   -0.3350   -4.8580 H       1  UNL1        0.0239
     59 H           1.3090    0.6900   -3.3040 H       1  UNL1        0.0671
     60 H           0.0250    0.9570    0.3870 H       1  UNL1        0.1578
     61 H          -0.3450    2.8630    0.8060 H       1  UNL1        0.1564
     62 H          -1.0620    4.7800    1.8160 H       1  UNL1        0.0636
     63 H          -1.9200    7.0830    1.6640 H       1  UNL1        0.0618
     64 H          -2.2420    8.1510   -0.5540 H       1  UNL1        0.0618
     65 H          -1.7010    6.8870   -2.6210 H       1  UNL1        0.0618
     66 H          -0.8590    4.5960   -2.4950 H       1  UNL1        0.0636
     67 H           1.5760    0.3850    1.5170 H       1  UNL1        0.0642
@<TRIPOS>BOND
     1     1     2    1
     2     1    36    1
     3     1    37    1
     4     1    38    1
     5     2     3    2
     6     2     4   am
     7     4     5    1
     8     4    39    1
     9     5     6    1
    10     5     7    1
    11     5    40    1
    12     6    41    1
    13     6    42    1
    14     6    43    1
    15     7     8    2
    16     7     9   am
    17     9    10    1
    18     9    44    1
    19    10    11    1
    20    10    45    1
    21    10    46    1
    22    11    12   ar
    23    11    35   ar
    24    12    13   ar
    25    12    47    1
    26    13    14   ar
    27    13    48    1
    28    14    15   ar
    29    14    49    1
    30    15    16    1
    31    15    35   ar
    32    16    17   ar
    33    16    24   ar
    34    17    18   ar
    35    18    19    1
    36    18    23   ar
    37    19    20    1
    38    19    21    1
    39    19    22    1
    40    20    50    1
    41    20    51    1
    42    20    52    1
    43    21    53    1
    44    21    54    1
    45    21    55    1
    46    22    56    1
    47    22    57    1
    48    22    58    1
    49    23    24   ar
    50    23    59    1
    51    24    25    1
    52    25    26   am
    53    25    60    1
    54    26    27    2
    55    26    28   am
    56    28    29    1
    57    28    61    1
    58    29    30   ar
    59    29    34   ar
    60    30    31   ar
    61    30    62    1
    62    31    32   ar
    63    31    63    1
    64    32    33   ar
    65    32    64    1
    66    33    34   ar
    67    33    65    1
    68    34    66    1
    69    35    67    1
@<TRIPOS>MOLECULE
AD3CC00778973-I00-C01
 65 67 0 0 0
SMALL
GASTEIGER

@<TRIPOS>ATOM
      1 C          -0.5210   -2.7500    5.5540 C.3     1  UNL1       -0.0546
      2 C           0.7990   -2.4280    4.8230 C.3     1  UNL1        0.0063
      3 C           1.5790   -3.7490    4.6600 C.3     1  UNL1       -0.0546
      4 C           1.6160   -1.4700    5.7140 C.3     1  UNL1       -0.0546
      5 C           0.5550   -1.7910    3.4650 C.ar    1  UNL1        0.0706
      6 C          -0.6600   -1.3630    2.8870 C.ar    1  UNL1        0.0021
      7 C          -0.3240   -0.7720    1.6860 C.ar    1  UNL1        0.1299
      8 N          -1.0850    0.0320    0.8440 N.am    1  UNL1       -0.2538
      9 C          -2.4420    0.2570    1.0550 C.2     1  UNL1        0.3092
     10 O          -3.1670   -0.4700    1.7240 O.2     1  UNL1       -0.2521
     11 N          -2.8420    1.4250    0.4280 N.am    1  UNL1       -0.2692
     12 C          -4.1320    1.9920    0.4170 C.ar    1  UNL1        0.0348
     13 C          -5.2860    1.3130    0.8110 C.ar    1  UNL1       -0.0404
     14 C          -6.5330    1.9480    0.7710 C.ar    1  UNL1       -0.0600
     15 C          -6.6370    3.2650    0.3330 C.ar    1  UNL1       -0.0616
     16 C          -5.4930    3.9480   -0.0700 C.ar    1  UNL1       -0.0600
     17 C          -4.2490    3.3160   -0.0280 C.ar    1  UNL1       -0.0404
     18 N           1.0290   -1.0550    1.5090 N.ar    1  UNL1       -0.2181
     19 C           1.8360   -0.9650    0.3390 C.ar    1  UNL1        0.0677
     20 C           3.2270   -0.8540    0.4870 C.ar    1  UNL1       -0.0362
     21 C           4.0540   -0.8070   -0.6330 C.ar    1  UNL1       -0.0594
     22 C           3.5040   -0.9200   -1.9070 C.ar    1  UNL1       -0.0569
     23 C           2.1220   -1.0890   -2.0760 C.ar    1  UNL1       -0.0283
     24 C           1.5630   -1.2930   -3.4630 C.3     1  UNL1        0.0369
     25 N           0.9100   -0.1040   -3.9440 N.am    1  UNL1       -0.3101
     26 C           1.6140    0.9570   -4.4650 C.2     1  UNL1        0.2288
     27 O           2.8110    0.9150   -4.7350 O.2     1  UNL1       -0.2743
     28 C           0.7900    2.2250   -4.6520 C.3     1  UNL1        0.0934
     29 N           0.4060    2.7860   -3.3410 N.3     1  UNL1       -0.1860
     30 S          -1.0540    2.3510   -2.6670 S.O2    1  UNL1        0.0270
     31 C          -2.1540    3.5790   -3.3430 C.3     1  UNL1        0.0705
     32 O          -0.9220    2.5660   -1.2410 O.2     1  UNL1       -0.1585
     33 O          -1.4100    1.0460   -3.1780 O.2     1  UNL1       -0.1585
     34 C           1.2820   -1.0790   -0.9450 C.ar    1  UNL1       -0.0315
     35 N           1.5880   -1.5120    2.6620 N.ar    1  UNL1       -0.1691
     36 H          -1.1460   -3.4310    4.9650 H       1  UNL1        0.0239
     37 H          -1.1050   -1.8420    5.7450 H       1  UNL1        0.0239
     38 H          -0.3350   -3.2280    6.5220 H       1  UNL1        0.0239
     39 H           1.0340   -4.4500    4.0190 H       1  UNL1        0.0239
     40 H           1.7430   -4.2380    5.6270 H       1  UNL1        0.0239
     41 H           2.5620   -3.5840    4.2060 H       1  UNL1        0.0239
     42 H           1.7900   -1.9040    6.7040 H       1  UNL1        0.0239
     43 H           2.5950   -1.2470    5.2750 H       1  UNL1        0.0239
     44 H           1.0960   -0.5150    5.8540 H       1  UNL1        0.0239
     45 H          -1.6420   -1.3880    3.3380 H       1  UNL1        0.0671
     46 H          -0.6230    0.5560    0.1110 H       1  UNL1        0.1578
     47 H          -2.0870    2.0160    0.0950 H       1  UNL1        0.1564
     48 H          -5.2500    0.2830    1.1490 H       1  UNL1        0.0636
     49 H          -7.4210    1.4070    1.0930 H       1  UNL1        0.0618
     50 H          -7.6050    3.7590    0.3070 H       1  UNL1        0.0618
     51 H          -5.5670    4.9790   -0.4030 H       1  UNL1        0.0618
     52 H          -3.3700    3.8810   -0.3270 H       1  UNL1        0.0636
     53 H           3.6790   -0.7910    1.4760 H       1  UNL1        0.0639
     54 H           5.1280   -0.7010   -0.5070 H       1  UNL1        0.0618
     55 H           4.1620   -0.8930   -2.7750 H       1  UNL1        0.0621
     56 H           2.3540   -1.5810   -4.1650 H       1  UNL1        0.0512
     57 H           0.8240   -2.1020   -3.4530 H       1  UNL1        0.0512
     58 H          -0.0580    0.0460   -3.6630 H       1  UNL1        0.1491
     59 H           1.4040    2.9650   -5.1750 H       1  UNL1        0.0537
     60 H          -0.0800    2.0220   -5.2840 H       1  UNL1        0.0537
     61 H           1.1700    2.8870   -2.6670 H       1  UNL1        0.1481
     62 H          -1.8290    4.5670   -3.0150 H       1  UNL1        0.0479
     63 H          -2.1450    3.5030   -4.4310 H       1  UNL1        0.0479
     64 H          -3.1590    3.3730   -2.9690 H       1  UNL1        0.0479
     65 H           0.2170   -1.2460   -1.0850 H       1  UNL1        0.0642
@<TRIPOS>BOND
     1     2     1    1
     2     1    36    1
     3     1    37    1
     4     1    38    1
     5     2     3    1
     6     2     4    1
     7     2     5    1
     8     3    39    1
     9     3    40    1
    10     3    41    1
    11     4    42    1
    12     4    43    1
    13     4    44    1
    14     5     6   ar
    15     5    35   ar
    16     6     7   ar
    17     6    45    1
    18     7     8    1
    19     7    18   ar
    20     8     9   am
    21     8    46    1
    22     9    10    2
    23     9    11   am
    24    11    12    1
    25    11    47    1
    26    12    13   ar
    27    12    17   ar
    28    13    14   ar
    29    13    48    1
    30    14    15   ar
    31    14    49    1
    32    15    16   ar
    33    15    50    1
    34    16    17   ar
    35    16    51    1
    36    17    52    1
    37    18    19    1
    38    18    35   ar
    39    19    20   ar
    40    19    34   ar
    41    20    21   ar
    42    20    53    1
    43    21    22   ar
    44    21    54    1
    45    22    23   ar
    46    22    55    1
    47    23    24    1
    48    23    34   ar
    49    24    25    1
    50    24    56    1
    51    24    57    1
    52    25    26   am
    53    25    58    1
    54    26    27    2
    55    26    28    1
    56    28    29    1
    57    28    59    1
    58    28    60    1
    59    30    29    1
    60    29    61    1
    61    30    31    1
    62    30    32    2
    63    30    33    2
    64    31    62    1
    65    31    63    1
    66    31    64    1
    67    34    65    1
@<TRIPOS>MOLECULE
AD3CC00779038-I00-C01
 66 69 0 0 0
SMALL
GASTEIGER

@<TRIPOS>ATOM
      1 C          -2.8070    2.7910   -3.2920 C.3     1  UNL1       -0.0546
      2 C          -1.4700    2.3510   -3.9230 C.3     1  UNL1        0.0063
      3 C          -1.7880    1.6800   -5.2770 C.3     1  UNL1       -0.0546
      4 C          -0.6120    3.6020   -4.1980 C.3     1  UNL1       -0.0546
      5 C          -0.7270    1.4160   -2.9810 C.ar    1  UNL1        0.0706
      6 C          -0.4020    1.6450   -1.6210 C.ar    1  UNL1        0.0021
      7 C           0.3410    0.5570   -1.2230 C.ar    1  UNL1        0.1299
      8 N           1.0710    0.3260   -0.0600 N.am    1  UNL1       -0.2538
      9 C           1.0310    1.1310    1.0660 C.2     1  UNL1        0.3092
     10 O           0.3300    2.1290    1.1850 O.2     1  UNL1       -0.2521
     11 N           1.8570    0.6090    2.0530 N.am    1  UNL1       -0.2692
     12 C           2.1370    1.1580    3.3210 C.ar    1  UNL1        0.0348
     13 C           1.7400    2.4330    3.7260 C.ar    1  UNL1       -0.0404
     14 C           2.0560    2.9000    5.0070 C.ar    1  UNL1       -0.0600
     15 C           2.7750    2.0970    5.8890 C.ar    1  UNL1       -0.0616
     16 C           3.1840    0.8270    5.4910 C.ar    1  UNL1       -0.0600
     17 C           2.8690    0.3620    4.2120 C.ar    1  UNL1       -0.0404
     18 N           0.2700   -0.3450   -2.2910 N.ar    1  UNL1       -0.2181
     19 C           0.6390   -1.7210   -2.3140 C.ar    1  UNL1        0.0677
     20 C           0.9330   -2.3580   -3.5200 C.ar    1  UNL1       -0.0362
     21 C           1.3720   -3.6850   -3.5090 C.ar    1  UNL1       -0.0594
     22 C           1.5170   -4.3750   -2.2990 C.ar    1  UNL1       -0.0569
     23 C           1.1760   -3.7680   -1.0840 C.ar    1  UNL1       -0.0283
     24 C           1.4100   -4.4940    0.2240 C.3     1  UNL1        0.0369
     25 N           0.6040   -4.0230    1.3340 N.am    1  UNL1       -0.3099
     26 C           0.9620   -2.9410    2.1150 C.2     1  UNL1        0.2308
     27 O           1.9930   -2.2860    1.9480 O.2     1  UNL1       -0.2741
     28 C          -0.1020   -2.5280    3.1400 C.3     1  UNL1        0.0942
     29 N          -1.0890   -1.6860    2.4910 N.am    1  UNL1       -0.2554
     30 C          -1.5810   -0.4840    3.0930 C.3     1  UNL1        0.0526
     31 C          -2.6320   -0.0610    2.0970 C.3     1  UNL1        0.1098
     32 O          -3.0790   -1.2980    1.5210 O.3     1  UNL1       -0.4487
     33 C          -2.0970   -2.2250    1.7220 C.2     1  UNL1        0.4034
     34 O          -2.1250   -3.3720    1.3000 O.2     1  UNL1       -0.2262
     35 C           0.7030   -2.4510   -1.1210 C.ar    1  UNL1       -0.0315
     36 N          -0.2380    0.2440   -3.4020 N.ar    1  UNL1       -0.1691
     37 H          -3.3690    3.4450   -3.9680 H       1  UNL1        0.0239
     38 H          -2.6530    3.3420   -2.3570 H       1  UNL1        0.0239
     39 H          -3.4390    1.9240   -3.0620 H       1  UNL1        0.0239
     40 H          -2.4030    0.7820   -5.1430 H       1  UNL1        0.0239
     41 H          -2.3380    2.3610   -5.9370 H       1  UNL1        0.0239
     42 H          -0.8740    1.3820   -5.8040 H       1  UNL1        0.0239
     43 H           0.3510    3.3310   -4.6470 H       1  UNL1        0.0239
     44 H          -1.1190    4.2900   -4.8830 H       1  UNL1        0.0239
     45 H          -0.3970    4.1540   -3.2750 H       1  UNL1        0.0239
     46 H          -0.6080    2.5370   -1.0450 H       1  UNL1        0.0671
     47 H           1.7230   -0.4470   -0.0490 H       1  UNL1        0.1578
     48 H           2.1860   -0.3430    1.9070 H       1  UNL1        0.1564
     49 H           1.1930    3.0970    3.0640 H       1  UNL1        0.0636
     50 H           1.7430    3.8960    5.3080 H       1  UNL1        0.0618
     51 H           3.0220    2.4650    6.8820 H       1  UNL1        0.0618
     52 H           3.7540    0.2010    6.1720 H       1  UNL1        0.0618
     53 H           3.2050   -0.6310    3.9210 H       1  UNL1        0.0636
     54 H           0.8540   -1.8280   -4.4670 H       1  UNL1        0.0639
     55 H           1.6220   -4.1760   -4.4460 H       1  UNL1        0.0618
     56 H           1.8950   -5.3950   -2.3180 H       1  UNL1        0.0621
     57 H           1.1670   -5.5550    0.1020 H       1  UNL1        0.0512
     58 H           2.4680   -4.4050    0.4930 H       1  UNL1        0.0512
     59 H          -0.3970   -4.2240    1.2790 H       1  UNL1        0.1491
     60 H           0.3920   -1.9710    3.9420 H       1  UNL1        0.0561
     61 H          -0.5850   -3.4140    3.5660 H       1  UNL1        0.0561
     62 H          -0.7960    0.2570    3.2430 H       1  UNL1        0.0499
     63 H          -2.0370   -0.7430    4.0550 H       1  UNL1        0.0499
     64 H          -3.4690    0.4610    2.5690 H       1  UNL1        0.0714
     65 H          -2.2240    0.5620    1.2940 H       1  UNL1        0.0714
     66 H           0.3440   -2.0030   -0.2040 H       1  UNL1        0.0642
@<TRIPOS>BOND
     1     2     1    1
     2     1    37    1
     3     1    38    1
     4     1    39    1
     5     2     3    1
     6     2     4    1
     7     2     5    1
     8     3    40    1
     9     3    41    1
    10     3    42    1
    11     4    43    1
    12     4    44    1
    13     4    45    1
    14     5     6   ar
    15     5    36   ar
    16     6     7   ar
    17     6    46    1
    18     7     8    1
    19     7    18   ar
    20     8     9   am
    21     8    47    1
    22     9    10    2
    23     9    11   am
    24    11    12    1
    25    11    48    1
    26    12    13   ar
    27    12    17   ar
    28    13    14   ar
    29    13    49    1
    30    14    15   ar
    31    14    50    1
    32    15    16   ar
    33    15    51    1
    34    16    17   ar
    35    16    52    1
    36    17    53    1
    37    18    19    1
    38    18    36   ar
    39    19    20   ar
    40    19    35   ar
    41    20    21   ar
    42    20    54    1
    43    21    22   ar
    44    21    55    1
    45    22    23   ar
    46    22    56    1
    47    23    24    1
    48    23    35   ar
    49    24    25    1
    50    24    57    1
    51    24    58    1
    52    25    26   am
    53    25    59    1
    54    26    27    2
    55    26    28    1
    56    28    29    1
    57    28    60    1
    58    28    61    1
    59    29    30    1
    60    29    33   am
    61    30    31    1
    62    30    62    1
    63    30    63    1
    64    31    32    1
    65    31    64    1
    66    31    65    1
    67    32    33    1
    68    33    34    2
    69    35    66    1
@<TRIPOS>MOLECULE
AD3CC00779040-I00-C00
 67 70 0 0 0
SMALL
GASTEIGER

@<TRIPOS>ATOM
      1 C          -2.8720    2.5290   -0.0080 C.3     1  UNL1       -0.0063
      2 C          -1.4290    2.2970    0.2650 C.ar    1  UNL1        0.1069
      3 N          -0.9440    1.5230    1.2220 N.ar    1  UNL1       -0.2409
      4 C           0.4220    1.6460    1.1370 C.ar    1  UNL1        0.0457
      5 C           0.7770    2.4630    0.0910 C.ar    1  UNL1        0.0248
      6 N          -0.4070    2.8730   -0.4620 N.ar    1  UNL1       -0.3257
      7 C          -0.5280    3.7910   -1.5830 C.3     1  UNL1        0.1006
      8 C          -1.0390    3.0920   -2.8240 C.2     1  UNL1        0.2331
      9 O          -2.1770    3.2750   -3.2490 O.2     1  UNL1       -0.2738
     10 N          -0.1310    2.2220   -3.4090 N.am    1  UNL1       -0.3097
     11 C          -0.6220    1.1240   -4.2250 C.3     1  UNL1        0.0369
     12 C          -1.1280    0.0430   -3.2990 C.ar    1  UNL1       -0.0283
     13 C          -2.5030   -0.0950   -3.0580 C.ar    1  UNL1       -0.0569
     14 C          -2.9640   -0.9240   -2.0370 C.ar    1  UNL1       -0.0594
     15 C          -2.0540   -1.5910   -1.2190 C.ar    1  UNL1       -0.0362
     16 C          -0.6800   -1.4700   -1.4620 C.ar    1  UNL1        0.0677
     17 N           0.2590   -2.0820   -0.5950 N.ar    1  UNL1       -0.2181
     18 N           1.4330   -2.5640   -1.0710 N.ar    1  UNL1       -0.1691
     19 C           1.9300   -3.2880   -0.0560 C.ar    1  UNL1        0.0706
     20 C           3.2100   -4.0950   -0.2090 C.3     1  UNL1        0.0063
     21 C           2.9900   -5.5400    0.2830 C.3     1  UNL1       -0.0546
     22 C           3.6800   -4.1670   -1.6790 C.3     1  UNL1       -0.0546
     23 C           4.3350   -3.4470    0.6220 C.3     1  UNL1       -0.0546
     24 C           1.1590   -3.1120    1.1230 C.ar    1  UNL1        0.0021
     25 C           0.1730   -2.2150    0.7850 C.ar    1  UNL1        0.1299
     26 N          -0.6990   -1.4600    1.5550 N.am    1  UNL1       -0.2538
     27 C          -0.7500   -1.5000    2.9390 C.2     1  UNL1        0.3092
     28 O          -0.2710   -2.3930    3.6250 O.2     1  UNL1       -0.2521
     29 N          -1.4210   -0.3820    3.4120 N.am    1  UNL1       -0.2692
     30 C          -1.7800   -0.0900    4.7410 C.ar    1  UNL1        0.0348
     31 C          -1.7110   -1.0120    5.7860 C.ar    1  UNL1       -0.0404
     32 C          -2.1000   -0.6450    7.0780 C.ar    1  UNL1       -0.0600
     33 C          -2.5630    0.6440    7.3340 C.ar    1  UNL1       -0.0616
     34 C          -2.6420    1.5690    6.2960 C.ar    1  UNL1       -0.0600
     35 C          -2.2540    1.2020    5.0050 C.ar    1  UNL1       -0.0404
     36 C          -0.2170   -0.7020   -2.5340 C.ar    1  UNL1       -0.0315
     37 H          -3.4770    2.1730    0.8320 H       1  UNL1        0.0307
     38 H          -3.1880    1.9910   -0.9040 H       1  UNL1        0.0307
     39 H          -3.0850    3.5940   -0.1410 H       1  UNL1        0.0307
     40 H           1.0820    1.1300    1.8260 H       1  UNL1        0.0845
     41 H           1.7430    2.7820   -0.2750 H       1  UNL1        0.0825
     42 H          -1.2100    4.5940   -1.2900 H       1  UNL1        0.0588
     43 H           0.4540    4.2340   -1.7840 H       1  UNL1        0.0588
     44 H           0.7080    2.0140   -2.8830 H       1  UNL1        0.1491
     45 H           0.2090    0.7520   -4.8330 H       1  UNL1        0.0512
     46 H          -1.4100    1.4770   -4.8990 H       1  UNL1        0.0512
     47 H          -3.2210    0.4850   -3.6370 H       1  UNL1        0.0621
     48 H          -4.0310   -1.0210   -1.8590 H       1  UNL1        0.0618
     49 H          -2.4310   -2.2230   -0.4180 H       1  UNL1        0.0639
     50 H           2.1810   -6.0290   -0.2720 H       1  UNL1        0.0239
     51 H           2.7230   -5.5690    1.3460 H       1  UNL1        0.0239
     52 H           3.8960   -6.1450    0.1580 H       1  UNL1        0.0239
     53 H           3.8850   -3.1710   -2.0870 H       1  UNL1        0.0239
     54 H           4.6000   -4.7530   -1.7720 H       1  UNL1        0.0239
     55 H           2.9220   -4.6370   -2.3160 H       1  UNL1        0.0239
     56 H           5.2730   -4.0040    0.5240 H       1  UNL1        0.0239
     57 H           4.5210   -2.4150    0.2990 H       1  UNL1        0.0239
     58 H           4.0810   -3.4140    1.6880 H       1  UNL1        0.0239
     59 H           1.3760   -3.4990    2.1100 H       1  UNL1        0.0671
     60 H          -1.1710   -0.6790    1.1070 H       1  UNL1        0.1578
     61 H          -1.4830    0.3920    2.7530 H       1  UNL1        0.1564
     62 H          -1.3670   -2.0290    5.6240 H       1  UNL1        0.0636
     63 H          -2.0390   -1.3720    7.8840 H       1  UNL1        0.0618
     64 H          -2.8640    0.9250    8.3400 H       1  UNL1        0.0618
     65 H          -3.0040    2.5750    6.4900 H       1  UNL1        0.0618
     66 H          -2.3210    1.9400    4.2080 H       1  UNL1        0.0636
     67 H           0.8530   -0.5980   -2.7030 H       1  UNL1        0.0642
@<TRIPOS>BOND
     1     1     2    1
     2     1    37    1
     3     1    38    1
     4     1    39    1
     5     2     3   ar
     6     2     6   ar
     7     3     4   ar
     8     4     5   ar
     9     4    40    1
    10     5     6   ar
    11     5    41    1
    12     6     7    1
    13     7     8    1
    14     7    42    1
    15     7    43    1
    16     8     9    2
    17     8    10   am
    18    10    11    1
    19    10    44    1
    20    11    12    1
    21    11    45    1
    22    11    46    1
    23    12    13   ar
    24    12    36   ar
    25    13    14   ar
    26    13    47    1
    27    14    15   ar
    28    14    48    1
    29    15    16   ar
    30    15    49    1
    31    16    17    1
    32    16    36   ar
    33    17    18   ar
    34    17    25   ar
    35    18    19   ar
    36    19    20    1
    37    19    24   ar
    38    20    21    1
    39    20    22    1
    40    20    23    1
    41    21    50    1
    42    21    51    1
    43    21    52    1
    44    22    53    1
    45    22    54    1
    46    22    55    1
    47    23    56    1
    48    23    57    1
    49    23    58    1
    50    24    25   ar
    51    24    59    1
    52    25    26    1
    53    26    27   am
    54    26    60    1
    55    27    28    2
    56    27    29   am
    57    29    30    1
    58    29    61    1
    59    30    31   ar
    60    30    35   ar
    61    31    32   ar
    62    31    62    1
    63    32    33   ar
    64    32    63    1
    65    33    34   ar
    66    33    64    1
    67    34    35   ar
    68    34    65    1
    69    35    66    1
    70    36    67    1
@<TRIPOS>MOLECULE
AD3CC00781107-I00-C00
 63 66 0 0 0
SMALL
GASTEIGER

@<TRIPOS>ATOM
      1 C           2.1740   -9.2190   -1.1770 C.3     1  UNL1        0.0004
      2 N           3.0590   -8.3600   -1.9140 N.am    1  UNL1       -0.3132
      3 C           3.1760   -7.0120   -1.6470 C.2     1  UNL1        0.2623
      4 O           2.6180   -6.4440   -0.7160 O.2     1  UNL1       -0.2685
      5 C           4.0470   -6.2670   -2.6140 C.ar    1  UNL1        0.1288
      6 C           4.2960   -4.9180   -2.4190 C.ar    1  UNL1        0.0112
      7 C           5.0930   -4.2710   -3.3580 C.ar    1  UNL1        0.1321
      8 O           5.4470   -2.9440   -3.2680 O.3     1  UNL1       -0.4559
      9 C           4.4830   -2.0520   -2.8600 C.ar    1  UNL1        0.1286
     10 C           3.2270   -1.9780   -3.4610 C.ar    1  UNL1       -0.0176
     11 C           2.3030   -1.0270   -3.0180 C.ar    1  UNL1       -0.0370
     12 C           2.6330   -0.1300   -1.9920 C.ar    1  UNL1        0.0339
     13 N           1.6400    0.7900   -1.5970 N.am    1  UNL1       -0.2815
     14 C           1.7660    1.8190   -0.6810 C.2     1  UNL1        0.2483
     15 O           2.7890    2.1730   -0.1080 O.2     1  UNL1       -0.2699
     16 C           0.5110    2.5810   -0.4260 C.ar    1  UNL1        0.0370
     17 C          -0.7340    1.9430   -0.3590 C.ar    1  UNL1       -0.0493
     18 C          -1.8900    2.6900   -0.1140 C.ar    1  UNL1       -0.0566
     19 C          -1.8150    4.0780    0.0770 C.ar    1  UNL1       -0.0333
     20 C          -3.0680    4.8910    0.3340 C.3     1  UNL1        0.0241
     21 N          -3.0120    5.6720    1.5780 N.3     1  UNL1       -0.2957
     22 C          -4.1360    6.6260    1.6400 C.3     1  UNL1        0.0120
     23 C          -4.1640    7.4290    2.9620 C.3     1  UNL1        0.0114
     24 N          -4.1510    6.6080    4.1880 N.3     1  UNL1       -0.3029
     25 C          -5.4390    5.9630    4.4230 C.3     1  UNL1       -0.0127
     26 C          -3.0550    5.6230    4.0930 C.3     1  UNL1        0.0114
     27 C          -3.0200    4.8090    2.7760 C.3     1  UNL1        0.0120
     28 C          -0.5610    4.7050    0.0200 C.ar    1  UNL1       -0.0566
     29 C           0.5960    3.9620   -0.2210 C.ar    1  UNL1       -0.0493
     30 C           3.9040   -0.2000   -1.4170 C.ar    1  UNL1       -0.0370
     31 C           4.8300   -1.1530   -1.8550 C.ar    1  UNL1       -0.0176
     32 C           5.6390   -4.9870   -4.4190 C.ar    1  UNL1       -0.0012
     33 C           5.3350   -6.3330   -4.5280 C.ar    1  UNL1        0.0319
     34 N           4.5450   -6.9950   -3.6570 N.ar    1  UNL1       -0.2501
     35 H           2.1380   -8.9220   -0.1260 H       1  UNL1        0.0426
     36 H           2.5360  -10.2460   -1.2620 H       1  UNL1        0.0426
     37 H           1.1740   -9.1430   -1.6110 H       1  UNL1        0.0426
     38 H           3.4910   -8.6810   -2.7770 H       1  UNL1        0.1487
     39 H           3.8850   -4.4000   -1.5590 H       1  UNL1        0.0677
     40 H           2.9590   -2.6490   -4.2720 H       1  UNL1        0.0655
     41 H           1.3260   -0.9940   -3.4930 H       1  UNL1        0.0637
     42 H           0.7590    0.7240   -2.0900 H       1  UNL1        0.1551
     43 H          -0.8170    0.8650   -0.4620 H       1  UNL1        0.0625
     44 H          -2.8490    2.1800   -0.0590 H       1  UNL1        0.0621
     45 H          -3.1770    5.5670   -0.5240 H       1  UNL1        0.0476
     46 H          -3.9530    4.2410    0.3270 H       1  UNL1        0.0476
     47 H          -5.0930    6.1030    1.5120 H       1  UNL1        0.0439
     48 H          -4.0490    7.3420    0.8140 H       1  UNL1        0.0439
     49 H          -3.2840    8.0870    2.9880 H       1  UNL1        0.0439
     50 H          -5.0310    8.1000    2.9660 H       1  UNL1        0.0439
     51 H          -6.2270    6.7160    4.5350 H       1  UNL1        0.0391
     52 H          -5.7360    5.2780    3.6230 H       1  UNL1        0.0391
     53 H          -5.4160    5.3980    5.3620 H       1  UNL1        0.0391
     54 H          -3.0900    4.9370    4.9480 H       1  UNL1        0.0439
     55 H          -2.1050    6.1660    4.1910 H       1  UNL1        0.0439
     56 H          -2.1140    4.1910    2.7990 H       1  UNL1        0.0439
     57 H          -3.8770    4.1230    2.7510 H       1  UNL1        0.0439
     58 H          -0.4830    5.7790    0.1820 H       1  UNL1        0.0621
     59 H           1.5630    4.4610   -0.2460 H       1  UNL1        0.0625
     60 H           4.2070    0.4710   -0.6190 H       1  UNL1        0.0637
     61 H           5.8160   -1.1920   -1.4020 H       1  UNL1        0.0655
     62 H           6.2850   -4.5040   -5.1440 H       1  UNL1        0.0669
     63 H           5.7340   -6.9300   -5.3430 H       1  UNL1        0.0831
@<TRIPOS>BOND
     1     1     2    1
     2     1    35    1
     3     1    36    1
     4     1    37    1
     5     2     3   am
     6     2    38    1
     7     3     4    2
     8     3     5    1
     9     5     6   ar
    10     5    34   ar
    11     6     7   ar
    12     6    39    1
    13     7     8    1
    14     7    32   ar
    15     8     9    1
    16     9    10   ar
    17     9    31   ar
    18    10    11   ar
    19    10    40    1
    20    11    12   ar
    21    11    41    1
    22    12    13    1
    23    12    30   ar
    24    13    14   am
    25    13    42    1
    26    14    15    2
    27    14    16    1
    28    16    17   ar
    29    16    29   ar
    30    17    18   ar
    31    17    43    1
    32    18    19   ar
    33    18    44    1
    34    19    20    1
    35    19    28   ar
    36    20    21    1
    37    20    45    1
    38    20    46    1
    39    21    22    1
    40    21    27    1
    41    22    23    1
    42    22    47    1
    43    22    48    1
    44    23    24    1
    45    23    49    1
    46    23    50    1
    47    24    25    1
    48    24    26    1
    49    25    51    1
    50    25    52    1
    51    25    53    1
    52    26    27    1
    53    26    54    1
    54    26    55    1
    55    27    56    1
    56    27    57    1
    57    28    29   ar
    58    28    58    1
    59    29    59    1
    60    30    31   ar
    61    30    60    1
    62    31    61    1
    63    32    33   ar
    64    32    62    1
    65    33    34   ar
    66    33    63    1
@<TRIPOS>MOLECULE
AD3CC00781148-I00-C00
 51 53 0 0 0
SMALL
GASTEIGER

@<TRIPOS>ATOM
      1 O           3.6870   -0.3190   -1.1210 O.2     1  UNL1       -0.2522
      2 C           3.4670    0.1070   -2.2470 C.2     1  UNL1        0.3081
      3 N           2.2100    0.2770   -2.8080 N.am    1  UNL1       -0.2692
      4 C           0.9670   -0.0940   -2.2550 C.ar    1  UNL1        0.0350
      5 C          -0.1860    0.3270   -2.9260 C.ar    1  UNL1       -0.0370
      6 C          -1.4540   -0.0100   -2.4430 C.ar    1  UNL1       -0.0182
      7 C          -1.5940   -0.7760   -1.2860 C.ar    1  UNL1        0.1207
      8 O          -2.8850   -1.0340   -0.9230 O.3     1  UNL1       -0.4907
      9 C          -3.0870   -1.7850    0.2770 C.3     1  UNL1        0.1022
     10 C          -4.5990   -1.9480    0.5300 C.3     1  UNL1        0.0333
     11 N          -5.2280   -0.8250    1.2590 N.3     1  UNL1       -0.2948
     12 C          -6.6460   -1.1410    1.5460 C.3     1  UNL1        0.0225
     13 C          -7.3560    0.0270    2.2460 C.3     1  UNL1        0.0604
     14 O          -7.2980    1.2160    1.4500 O.3     1  UNL1       -0.3772
     15 C          -5.9300    1.5720    1.2080 C.3     1  UNL1        0.0604
     16 C          -5.1720    0.4400    0.4930 C.3     1  UNL1        0.0225
     17 C          -0.4490   -1.2050   -0.6180 C.ar    1  UNL1       -0.0182
     18 C           0.8230   -0.8680   -1.1020 C.ar    1  UNL1       -0.0370
     19 N           4.4490    0.4900   -3.1520 N.am    1  UNL1       -0.2692
     20 C           5.8370    0.5750   -2.9230 C.ar    1  UNL1        0.0354
     21 C           6.6570    0.7800   -4.0370 C.ar    1  UNL1       -0.0390
     22 C           8.0420    0.8820   -3.8890 C.ar    1  UNL1       -0.0411
     23 C           8.6250    0.7870   -2.6230 C.ar    1  UNL1        0.0527
     24 CL         10.3430    0.9220   -2.5270 Cl      1  UNL1       -0.0830
     25 C           7.8260    0.5930   -1.4920 C.ar    1  UNL1        0.0748
     26 C           8.4270    0.4950   -0.1150 C.3     1  UNL1        0.4188
     27 F           9.2940   -0.5470    0.0140 F       1  UNL1       -0.1658
     28 F           9.1180    1.6140    0.2420 F       1  UNL1       -0.1658
     29 F           7.5010    0.3170    0.8710 F       1  UNL1       -0.1658
     30 C           6.4280    0.4910   -1.6590 C.ar    1  UNL1       -0.0274
     31 H           2.1670    0.8590   -3.6300 H       1  UNL1        0.1564
     32 H          -0.1200    0.9260   -3.8310 H       1  UNL1        0.0637
     33 H          -2.3400    0.3280   -2.9740 H       1  UNL1        0.0655
     34 H          -2.6130   -1.2930    1.1350 H       1  UNL1        0.0709
     35 H          -2.6550   -2.7850    0.1470 H       1  UNL1        0.0709
     36 H          -5.1160   -2.1270   -0.4210 H       1  UNL1        0.0460
     37 H          -4.7190   -2.8460    1.1490 H       1  UNL1        0.0460
     38 H          -7.1740   -1.3650    0.6100 H       1  UNL1        0.0449
     39 H          -6.7080   -2.0260    2.1900 H       1  UNL1        0.0449
     40 H          -8.4130   -0.2190    2.3960 H       1  UNL1        0.0572
     41 H          -6.9190    0.2270    3.2320 H       1  UNL1        0.0572
     42 H          -5.4510    1.8300    2.1600 H       1  UNL1        0.0572
     43 H          -5.9290    2.4700    0.5820 H       1  UNL1        0.0572
     44 H          -4.1350    0.7660    0.3680 H       1  UNL1        0.0449
     45 H          -5.6110    0.2930   -0.5030 H       1  UNL1        0.0449
     46 H          -0.5010   -1.8070    0.2830 H       1  UNL1        0.0655
     47 H           1.6850   -1.2340   -0.5510 H       1  UNL1        0.0637
     48 H           4.1520    0.5540   -4.1140 H       1  UNL1        0.1564
     49 H           6.2350    0.8590   -5.0360 H       1  UNL1        0.0636
     50 H           8.6630    1.0360   -4.7690 H       1  UNL1        0.0633
     51 H           5.8150    0.3540   -0.7700 H       1  UNL1        0.0642
@<TRIPOS>BOND
     1     1     2    2
     2     2     3   am
     3     2    19   am
     4     3     4    1
     5     3    31    1
     6     4     5   ar
     7     4    18   ar
     8     5     6   ar
     9     5    32    1
    10     6     7   ar
    11     6    33    1
    12     7     8    1
    13     7    17   ar
    14     8     9    1
    15     9    10    1
    16     9    34    1
    17     9    35    1
    18    10    11    1
    19    10    36    1
    20    10    37    1
    21    11    12    1
    22    11    16    1
    23    12    13    1
    24    12    38    1
    25    12    39    1
    26    13    14    1
    27    13    40    1
    28    13    41    1
    29    14    15    1
    30    15    16    1
    31    15    42    1
    32    15    43    1
    33    16    44    1
    34    16    45    1
    35    17    18   ar
    36    17    46    1
    37    18    47    1
    38    19    20    1
    39    19    48    1
    40    20    21   ar
    41    20    30   ar
    42    21    22   ar
    43    21    49    1
    44    22    23   ar
    45    22    50    1
    46    23    24    1
    47    23    25   ar
    48    25    26    1
    49    25    30   ar
    50    26    27    1
    51    26    28    1
    52    26    29    1
    53    30    51    1
@<TRIPOS>MOLECULE
AD3CC00784145-I00-C00
 55 59 0 0 0
SMALL
GASTEIGER

@<TRIPOS>ATOM
      1 O          -4.4670    1.1870    0.2600 O.2     1  UNL1       -0.2702
      2 C          -3.2440    1.2350    0.1880 C.2     1  UNL1        0.2441
      3 N          -2.5330    2.4130    0.2160 N.am    1  UNL1       -0.3099
      4 C          -3.1890    3.6860    0.4520 C.3     1  UNL1        0.0273
      5 C          -2.2230    4.8620    0.2520 C.3     1  UNL1        0.0232
      6 C          -1.8410    5.0940   -1.2060 C.3     1  UNL1       -0.0350
      7 C          -0.4720    5.7630   -1.1430 C.3     1  UNL1       -0.0390
      8 C          -0.0350    5.6560    0.3100 C.3     1  UNL1       -0.0038
      9 N          -0.9100    4.6370    0.8880 N.3     1  UNL1       -0.3118
     10 C          -2.4430   -0.0180    0.1010 C.ar    1  UNL1        0.0367
     11 C          -3.0120   -1.2070    0.5670 C.ar    1  UNL1       -0.0490
     12 C          -2.2930   -2.4060    0.5050 C.ar    1  UNL1       -0.0518
     13 C          -0.9960   -2.4390   -0.0260 C.ar    1  UNL1        0.0020
     14 C          -0.2640   -3.7050   -0.0940 C.ar    1  UNL1        0.0929
     15 C          -0.7160   -4.9820   -0.3850 C.ar    1  UNL1        0.0560
     16 N           0.2900   -5.9110   -0.3370 N.ar    1  UNL1       -0.2340
     17 C           1.3620   -5.2250   -0.0080 C.ar    1  UNL1        0.1548
     18 C           2.6910   -5.6430    0.2000 C.ar    1  UNL1       -0.0142
     19 C           3.6130   -4.7390    0.5460 C.ar    1  UNL1       -0.0167
     20 C           3.2000   -3.3070    0.7020 C.ar    1  UNL1        0.1398
     21 N           4.1680   -2.3980    1.0630 N.pl3   1  UNL1       -0.3274
     22 C           3.9390   -0.9690    1.0160 C.3     1  UNL1        0.0133
     23 C           5.1350   -0.2750    1.5940 C.3     1  UNL1       -0.0255
     24 C           6.3850   -0.0750    0.7730 C.3     1  UNL1       -0.0485
     25 C           5.5210    1.1050    1.1250 C.3     1  UNL1       -0.0485
     26 N           1.9750   -2.8990    0.5110 N.ar    1  UNL1       -0.1496
     27 N           1.0880   -3.8780    0.1570 N.ar    1  UNL1       -0.2110
     28 C          -0.4430   -1.2460   -0.5110 C.ar    1  UNL1       -0.0518
     29 C          -1.1580   -0.0430   -0.4510 C.ar    1  UNL1       -0.0490
     30 H          -1.5430    2.4010    0.4350 H       1  UNL1        0.1491
     31 H          -3.5500    3.6690    1.4870 H       1  UNL1        0.0477
     32 H          -4.0590    3.7700   -0.2080 H       1  UNL1        0.0477
     33 H          -2.6810    5.7750    0.6570 H       1  UNL1        0.0476
     34 H          -1.7610    4.1530   -1.7640 H       1  UNL1        0.0281
     35 H          -2.5730    5.7240   -1.7220 H       1  UNL1        0.0281
     36 H           0.2290    5.2470   -1.8080 H       1  UNL1        0.0278
     37 H          -0.5270    6.8100   -1.4590 H       1  UNL1        0.0278
     38 H          -0.1820    6.6140    0.8220 H       1  UNL1        0.0424
     39 H           1.0180    5.3770    0.4020 H       1  UNL1        0.0424
     40 H          -0.9820    4.7600    1.8980 H       1  UNL1        0.1223
     41 H          -4.0170   -1.2050    0.9850 H       1  UNL1        0.0625
     42 H          -2.7580   -3.3120    0.8890 H       1  UNL1        0.0624
     43 H          -1.7270   -5.2760   -0.6380 H       1  UNL1        0.0852
     44 H           2.9340   -6.6920    0.0800 H       1  UNL1        0.0656
     45 H           4.6440   -5.0080    0.7280 H       1  UNL1        0.0653
     46 H           5.1340   -2.6700    0.9270 H       1  UNL1        0.1475
     47 H           3.7660   -0.6550   -0.0200 H       1  UNL1        0.0464
     48 H           3.0550   -0.7000    1.6060 H       1  UNL1        0.0464
     49 H           5.2500   -0.4890    2.6520 H       1  UNL1        0.0316
     50 H           6.3910   -0.4030   -0.2610 H       1  UNL1        0.0269
     51 H           7.3420   -0.1690    1.2740 H       1  UNL1        0.0269
     52 H           4.9450    1.5680    0.3320 H       1  UNL1        0.0269
     53 H           5.8940    1.8050    1.8650 H       1  UNL1        0.0269
     54 H           0.5500   -1.2410   -0.9550 H       1  UNL1        0.0624
     55 H          -0.7040    0.8530   -0.8630 H       1  UNL1        0.0625
@<TRIPOS>BOND
     1     1     2    2
     2     2     3   am
     3     2    10    1
     4     3     4    1
     5     3    30    1
     6     4     5    1
     7     4    31    1
     8     4    32    1
     9     5     6    1
    10     5     9    1
    11     5    33    1
    12     6     7    1
    13     6    34    1
    14     6    35    1
    15     7     8    1
    16     7    36    1
    17     7    37    1
    18     8     9    1
    19     8    38    1
    20     8    39    1
    21     9    40    1
    22    10    11   ar
    23    10    29   ar
    24    11    12   ar
    25    11    41    1
    26    12    13   ar
    27    12    42    1
    28    13    14    1
    29    13    28   ar
    30    14    15   ar
    31    14    27   ar
    32    15    16   ar
    33    15    43    1
    34    16    17   ar
    35    17    18   ar
    36    17    27   ar
    37    18    19   ar
    38    18    44    1
    39    19    20   ar
    40    19    45    1
    41    20    21    1
    42    20    26   ar
    43    21    22    1
    44    21    46    1
    45    22    23    1
    46    22    47    1
    47    22    48    1
    48    23    24    1
    49    23    25    1
    50    23    49    1
    51    24    25    1
    52    24    50    1
    53    24    51    1
    54    25    52    1
    55    25    53    1
    56    26    27   ar
    57    28    29   ar
    58    28    54    1
    59    29    55    1
@<TRIPOS>MOLECULE
AD3CC00790275-I00-C00
 44 47 0 0 0
SMALL
GASTEIGER

@<TRIPOS>ATOM
      1 C           2.1680   -3.2060   -1.8250 C.3     1  UNL1        0.0059
      2 N           2.0830   -2.5300   -0.5220 N.pl3   1  UNL1       -0.2989
      3 C           3.3720   -2.4100    0.0760 C.ar    1  UNL1        0.0340
      4 C           4.0680   -3.5570    0.4960 C.ar    1  UNL1       -0.0376
      5 C           5.3280   -3.4530    1.0910 C.ar    1  UNL1       -0.0247
      6 C           5.8990   -2.2000    1.2690 C.ar    1  UNL1        0.1235
      7 F           7.1060   -2.1000    1.8400 F       1  UNL1       -0.2055
      8 C           5.2350   -1.0490    0.8650 C.ar    1  UNL1       -0.0247
      9 C           3.9750   -1.1540    0.2720 C.ar    1  UNL1       -0.0376
     10 C           1.0360   -1.6400   -0.1860 C.ar    1  UNL1        0.0998
     11 C           0.7760   -1.2950    1.0860 C.ar    1  UNL1       -0.0243
     12 C          -0.2940   -0.3850    1.4600 C.ar    1  UNL1        0.0224
     13 C          -0.4850   -0.0780    2.7990 C.ar    1  UNL1        0.0592
     14 N          -1.4460    0.7540    3.2250 N.ar    1  UNL1       -0.1564
     15 N          -2.2370    1.3530    2.3050 N.ar    1  UNL1       -0.1471
     16 C          -2.0820    1.1060    0.9730 C.ar    1  UNL1        0.1201
     17 C          -2.9660    1.9690    0.1850 C.ar    1  UNL1        0.0395
     18 C          -4.3570    1.7590    0.1700 C.ar    1  UNL1       -0.0470
     19 C          -5.1980    2.6150   -0.5470 C.ar    1  UNL1       -0.0257
     20 C          -4.6540    3.6930   -1.2370 C.ar    1  UNL1        0.1262
     21 F          -5.4630    4.5110   -1.9230 F       1  UNL1       -0.2054
     22 C          -3.2890    3.9380   -1.2220 C.ar    1  UNL1        0.0095
     23 C          -2.4590    3.0800   -0.5060 C.ar    1  UNL1        0.1354
     24 F          -1.1400    3.3270   -0.5010 F       1  UNL1       -0.2047
     25 C          -1.1310    0.1840    0.4960 C.ar    1  UNL1        0.0812
     26 N          -0.9430   -0.2430   -0.8670 N.ar    1  UNL1       -0.3077
     27 C          -1.8710    0.1430   -1.9170 C.3     1  UNL1        0.0154
     28 C           0.1210   -1.0680   -1.2610 C.ar    1  UNL1        0.2730
     29 O           0.3220   -1.3310   -2.4490 O.2     1  UNL1       -0.2657
     30 H           2.8290   -4.0800   -1.8030 H       1  UNL1        0.0432
     31 H           2.5430   -2.5250   -2.5970 H       1  UNL1        0.0432
     32 H           1.1870   -3.5930   -2.1240 H       1  UNL1        0.0432
     33 H           3.6180   -4.5400    0.3800 H       1  UNL1        0.0637
     34 H           5.8610   -4.3400    1.4190 H       1  UNL1        0.0647
     35 H           5.7010   -0.0800    1.0090 H       1  UNL1        0.0647
     36 H           3.4730   -0.2470   -0.0580 H       1  UNL1        0.0637
     37 H           1.3840   -1.7090    1.8860 H       1  UNL1        0.0645
     38 H           0.1310   -0.4990    3.5870 H       1  UNL1        0.0855
     39 H          -4.7900    0.9310    0.7280 H       1  UNL1        0.0626
     40 H          -6.2720    2.4540   -0.5610 H       1  UNL1        0.0646
     41 H          -2.8750    4.7860   -1.7550 H       1  UNL1        0.0675
     42 H          -1.6600    1.1680   -2.2290 H       1  UNL1        0.0457
     43 H          -1.7690   -0.4910   -2.8040 H       1  UNL1        0.0457
     44 H          -2.9010    0.0170   -1.5800 H       1  UNL1        0.0457
@<TRIPOS>BOND
     1     1     2    1
     2     1    30    1
     3     1    31    1
     4     1    32    1
     5     2     3    1
     6     2    10    1
     7     3     4   ar
     8     3     9   ar
     9     4     5   ar
    10     4    33    1
    11     5     6   ar
    12     5    34    1
    13     6     7    1
    14     6     8   ar
    15     8     9   ar
    16     8    35    1
    17     9    36    1
    18    10    11   ar
    19    10    28   ar
    20    11    12   ar
    21    11    37    1
    22    12    13   ar
    23    12    25   ar
    24    13    14   ar
    25    13    38    1
    26    14    15   ar
    27    15    16   ar
    28    16    17    1
    29    16    25   ar
    30    17    18   ar
    31    17    23   ar
    32    18    19   ar
    33    18    39    1
    34    19    20   ar
    35    19    40    1
    36    20    21    1
    37    20    22   ar
    38    22    23   ar
    39    22    41    1
    40    23    24    1
    41    25    26   ar
    42    26    27    1
    43    26    28   ar
    44    27    42    1
    45    27    43    1
    46    27    44    1
    47    28    29    2
@<TRIPOS>MOLECULE
AD3CC00791102-I00-C00
 55 58 0 0 0
SMALL
GASTEIGER

@<TRIPOS>ATOM
      1 C          -6.7510    0.5840   -4.9310 C.3     1  UNL1       -0.0495
      2 C          -6.9220   -0.3230   -3.7260 C.3     1  UNL1        0.0091
      3 N          -5.6540   -0.6240   -3.0980 N.am    1  UNL1       -0.3116
      4 C          -5.0670    0.2370   -2.1950 C.2     1  UNL1        0.2459
      5 O          -5.6030    1.2770   -1.8250 O.2     1  UNL1       -0.2701
      6 C          -3.7420   -0.1740   -1.7170 C.ar    1  UNL1        0.0598
      7 C          -3.1950   -1.4430   -1.8030 C.ar    1  UNL1        0.0423
      8 N          -1.9590   -1.4340   -1.2270 N.ar    1  UNL1       -0.2342
      9 N          -1.1310   -2.4850   -1.1780 N.ar    1  UNL1       -0.1548
     10 C          -0.0170   -2.2390   -0.5670 C.ar    1  UNL1        0.1388
     11 N           0.3510   -1.0620    0.0280 N.ar    1  UNL1       -0.2167
     12 C          -0.4480   -0.0330   -0.0040 C.ar    1  UNL1        0.1506
     13 N          -0.1450    1.1490    0.6430 N.pl3   1  UNL1       -0.2975
     14 C           1.0600    1.5480    1.2600 C.ar    1  UNL1        0.0361
     15 C           2.2950    0.9880    0.8940 C.ar    1  UNL1       -0.0281
     16 C           3.4830    1.3480    1.5440 C.ar    1  UNL1        0.0388
     17 C           4.7920    0.7370    1.1730 C.2     1  UNL1        0.2497
     18 O           5.7970    1.4300    1.2710 O.2     1  UNL1       -0.2698
     19 N           4.7160   -0.5820    0.7890 N.am    1  UNL1       -0.2607
     20 C           5.7460   -1.3850    0.3730 C.ar    1  UNL1        0.1648
     21 N           5.5380   -2.6500    0.0910 N.ar    1  UNL1       -0.2327
     22 C           6.7250   -3.2330   -0.3100 C.ar    1  UNL1        0.0397
     23 C           7.8210   -2.3960   -0.3340 C.ar    1  UNL1        0.0080
     24 C           9.2280   -2.6830   -0.7080 C.3     1  UNL1       -0.0319
     25 S           7.3410   -0.8290    0.1640 S.2     1  UNL1       -0.0573
     26 C           3.4560    2.3150    2.5480 C.ar    1  UNL1       -0.0493
     27 C           2.2440    2.8900    2.9230 C.ar    1  UNL1       -0.0564
     28 C           1.0420    2.5080    2.2990 C.ar    1  UNL1       -0.0292
     29 C          -0.2380    3.1510    2.7660 C.3     1  UNL1       -0.0380
     30 C          -1.6940   -0.2000   -0.7140 C.ar    1  UNL1        0.1090
     31 C          -2.7510    0.6420   -1.0500 C.ar    1  UNL1       -0.0081
     32 C          -2.8690    2.1070   -0.7910 C.3     1  UNL1       -0.0368
     33 H          -6.0890    0.1260   -5.6740 H       1  UNL1        0.0245
     34 H          -7.7180    0.7760   -5.4040 H       1  UNL1        0.0245
     35 H          -6.3130    1.5460   -4.6440 H       1  UNL1        0.0245
     36 H          -7.3660   -1.2760   -4.0310 H       1  UNL1        0.0459
     37 H          -7.5860    0.1460   -2.9930 H       1  UNL1        0.0459
     38 H          -5.1050   -1.3850   -3.4700 H       1  UNL1        0.1490
     39 H          -3.5760   -2.3680   -2.2120 H       1  UNL1        0.0838
     40 H           0.7210   -3.0560   -0.5010 H       1  UNL1        0.1066
     41 H          -0.9220    1.7680    0.8090 H       1  UNL1        0.1536
     42 H           2.3370    0.2960    0.0590 H       1  UNL1        0.0644
     43 H           3.8410   -1.0820    0.8590 H       1  UNL1        0.1571
     44 H           6.7330   -4.2830   -0.5780 H       1  UNL1        0.0838
     45 H           9.5390   -2.0650   -1.5560 H       1  UNL1        0.0283
     46 H           9.3490   -3.7330   -0.9970 H       1  UNL1        0.0283
     47 H           9.9020   -2.4880    0.1330 H       1  UNL1        0.0283
     48 H           4.3760    2.6190    3.0430 H       1  UNL1        0.0625
     49 H           2.2430    3.6380    3.7140 H       1  UNL1        0.0621
     50 H          -0.0700    3.8130    3.6220 H       1  UNL1        0.0278
     51 H          -0.6740    3.7530    1.9620 H       1  UNL1        0.0278
     52 H          -0.9560    2.3860    3.0820 H       1  UNL1        0.0278
     53 H          -3.2310    2.2850    0.2260 H       1  UNL1        0.0278
     54 H          -1.9040    2.6060   -0.9170 H       1  UNL1        0.0278
     55 H          -3.5520    2.5920   -1.4930 H       1  UNL1        0.0278
@<TRIPOS>BOND
     1     1     2    1
     2     1    33    1
     3     1    34    1
     4     1    35    1
     5     2     3    1
     6     2    36    1
     7     2    37    1
     8     3     4   am
     9     3    38    1
    10     4     5    2
    11     4     6    1
    12     6     7   ar
    13     6    31   ar
    14     7     8   ar
    15     7    39    1
    16     8     9   ar
    17     8    30   ar
    18     9    10   ar
    19    10    11   ar
    20    10    40    1
    21    11    12   ar
    22    12    13    1
    23    12    30   ar
    24    13    14    1
    25    13    41    1
    26    14    15   ar
    27    14    28   ar
    28    15    16   ar
    29    15    42    1
    30    16    17    1
    31    16    26   ar
    32    17    18    2
    33    17    19   am
    34    19    20    1
    35    19    43    1
    36    20    21   ar
    37    20    25   ar
    38    21    22   ar
    39    22    23   ar
    40    22    44    1
    41    23    24    1
    42    23    25   ar
    43    24    45    1
    44    24    46    1
    45    24    47    1
    46    26    27   ar
    47    26    48    1
    48    27    28   ar
    49    27    49    1
    50    28    29    1
    51    29    50    1
    52    29    51    1
    53    29    52    1
    54    30    31   ar
    55    31    32    1
    56    32    53    1
    57    32    54    1
    58    32    55    1
@<TRIPOS>MOLECULE
AD3CC00793023-I00-C00
 39 41 0 0 0
SMALL
GASTEIGER

@<TRIPOS>ATOM
      1 C           2.9390   -5.2880   -3.2700 C.3     1  UNL1       -0.0639
      2 C           3.8550   -4.2430   -2.6490 C.3     1  UNL1       -0.0403
      3 C           3.0900   -3.1740   -1.8660 C.3     1  UNL1        0.0106
      4 N           2.4450   -3.7580   -0.7040 N.pl3   1  UNL1       -0.3235
      5 C           1.7370   -2.9990    0.1670 C.ar    1  UNL1        0.1586
      6 N           1.6340   -3.3450    1.4280 N.ar    1  UNL1       -0.2326
      7 C           0.8590   -2.4290    2.1120 C.ar    1  UNL1        0.0461
      8 C           0.3640   -1.3670    1.3750 C.ar    1  UNL1        0.0589
      9 C          -0.4730   -0.2480    1.8250 C.ar    1  UNL1        0.0847
     10 C          -0.9060    0.7740    1.0060 C.ar    1  UNL1       -0.0089
     11 C          -1.6780    1.7580    1.5940 C.ar    1  UNL1        0.0794
     12 C          -2.2170    2.9140    0.8520 C.ar    1  UNL1        0.0357
     13 C          -3.4770    3.4530    1.1820 C.ar    1  UNL1       -0.0498
     14 C          -4.0120    4.5430    0.4860 C.ar    1  UNL1       -0.0610
     15 C          -3.2960    5.1250   -0.5560 C.ar    1  UNL1       -0.0590
     16 C          -2.0450    4.6200   -0.8960 C.ar    1  UNL1       -0.0258
     17 C          -1.5200    3.5310   -0.1990 C.ar    1  UNL1        0.1325
     18 F          -0.3040    3.0910   -0.5590 F       1  UNL1       -0.2048
     19 N          -2.0130    1.7020    2.9020 N.ar    1  UNL1       -0.2146
     20 C          -1.5640    0.6690    3.6110 C.ar    1  UNL1        0.2136
     21 N          -1.8970    0.6220    4.9470 N.pl3   1  UNL1       -0.3274
     22 N          -0.7880   -0.3020    3.1340 N.ar    1  UNL1       -0.2141
     23 S           0.8960   -1.5540   -0.2470 S.2     1  UNL1       -0.0509
     24 H           3.5250   -6.0030   -3.8560 H       1  UNL1        0.0230
     25 H           2.2090   -4.8220   -3.9370 H       1  UNL1        0.0230
     26 H           2.3960   -5.8510   -2.5050 H       1  UNL1        0.0230
     27 H           4.4240   -3.7530   -3.4500 H       1  UNL1        0.0278
     28 H           4.5840   -4.7410   -1.9970 H       1  UNL1        0.0278
     29 H           3.7990   -2.4020   -1.5450 H       1  UNL1        0.0462
     30 H           2.3540   -2.7050   -2.5290 H       1  UNL1        0.0462
     31 H           2.9940   -4.4700   -0.2280 H       1  UNL1        0.1479
     32 H           0.6780   -2.5830    3.1710 H       1  UNL1        0.0842
     33 H          -0.6680    0.8080   -0.0490 H       1  UNL1        0.0661
     34 H          -4.0580    3.0150    1.9930 H       1  UNL1        0.0625
     35 H          -4.9900    4.9330    0.7610 H       1  UNL1        0.0618
     36 H          -3.7090    5.9730   -1.0960 H       1  UNL1        0.0618
     37 H          -1.4680    5.0670   -1.7000 H       1  UNL1        0.0646
     38 H          -1.2100    0.0860    5.4570 H       1  UNL1        0.1452
     39 H          -2.1030    1.5520    5.2830 H       1  UNL1        0.1452
@<TRIPOS>BOND
     1     1     2    1
     2     1    24    1
     3     1    25    1
     4     1    26    1
     5     2     3    1
     6     2    27    1
     7     2    28    1
     8     3     4    1
     9     3    29    1
    10     3    30    1
    11     4     5    1
    12     4    31    1
    13     5     6   ar
    14     5    23   ar
    15     6     7   ar
    16     7     8   ar
    17     7    32    1
    18     8     9    1
    19     8    23   ar
    20     9    10   ar
    21     9    22   ar
    22    10    11   ar
    23    10    33    1
    24    11    12    1
    25    11    19   ar
    26    12    13   ar
    27    12    17   ar
    28    13    14   ar
    29    13    34    1
    30    14    15   ar
    31    14    35    1
    32    15    16   ar
    33    15    36    1
    34    16    17   ar
    35    16    37    1
    36    17    18    1
    37    19    20   ar
    38    20    21    1
    39    20    22   ar
    40    21    38    1
    41    21    39    1
@<TRIPOS>MOLECULE
AD3CC00794230-I00-C01
 74 79 0 0 0
SMALL
GASTEIGER

@<TRIPOS>ATOM
      1 C          -5.3720   -2.9350   -3.3980 C.3     1  UNL1       -0.0546
      2 C          -3.8520   -2.9800   -3.6570 C.3     1  UNL1        0.0063
      3 C          -3.5600   -2.1640   -4.9330 C.3     1  UNL1       -0.0546
      4 C          -3.4330   -4.4400   -3.9270 C.3     1  UNL1       -0.0546
      5 C          -3.1050   -2.4320   -2.4510 C.ar    1  UNL1        0.0706
      6 C          -2.3430   -1.2440   -2.3390 C.ar    1  UNL1        0.0021
      7 C          -1.9500   -1.1710   -1.0210 C.ar    1  UNL1        0.1299
      8 N          -1.3480   -0.1390   -0.3080 N.am    1  UNL1       -0.2538
      9 C          -0.7140    0.9420   -0.9040 C.2     1  UNL1        0.3092
     10 O          -0.5910    1.0990   -2.1120 O.2     1  UNL1       -0.2521
     11 N          -0.2100    1.7890    0.0740 N.am    1  UNL1       -0.2686
     12 C           0.7170    2.8510   -0.0870 C.ar    1  UNL1        0.0425
     13 C           1.4630    2.9760   -1.2670 C.ar    1  UNL1       -0.0398
     14 C           2.4280    3.9690   -1.4040 C.ar    1  UNL1       -0.0594
     15 C           2.6710    4.8500   -0.3570 C.ar    1  UNL1       -0.0539
     16 C           1.9460    4.7600    0.8370 C.ar    1  UNL1       -0.0161
     17 C           2.2150    5.6680    1.8750 C.ar    1  UNL1       -0.0540
     18 C           1.5080    5.6210    3.0740 C.ar    1  UNL1       -0.0612
     19 C           0.5160    4.6690    3.2460 C.ar    1  UNL1       -0.0611
     20 C           0.2370    3.7580    2.2220 C.ar    1  UNL1       -0.0523
     21 C           0.9460    3.7620    0.9930 C.ar    1  UNL1        0.0034
     22 N          -2.3270   -2.3900   -0.4590 N.ar    1  UNL1       -0.2180
     23 C          -1.9320   -2.9520    0.7880 C.ar    1  UNL1        0.0681
     24 C          -2.7420   -3.9110    1.4090 C.ar    1  UNL1       -0.0362
     25 C          -2.3920   -4.4120    2.6660 C.ar    1  UNL1       -0.0590
     26 C          -1.2400   -3.9520    3.3080 C.ar    1  UNL1       -0.0495
     27 C          -0.4170   -3.0100    2.6800 C.ar    1  UNL1        0.0394
     28 C           0.8130   -2.5420    3.3670 C.2     1  UNL1        0.2561
     29 O           1.4160   -3.3380    4.0870 O.2     1  UNL1       -0.2694
     30 N           1.2110   -1.2130    3.2250 N.am    1  UNL1       -0.1927
     31 C           0.3890   -0.0940    3.1380 C.2     1  UNL1        0.4102
     32 O          -0.6730    0.0210    2.5420 O.2     1  UNL1       -0.2258
     33 O           0.9860    0.9870    3.7320 O.3     1  UNL1       -0.4477
     34 C           2.1520    0.5210    4.4170 C.3     1  UNL1        0.1172
     35 C           2.4890   -0.7930    3.7410 C.3     1  UNL1        0.0962
     36 C           3.4890   -0.6990    2.5960 C.ar    1  UNL1       -0.0232
     37 C           3.5620    0.4120    1.7380 C.ar    1  UNL1       -0.0567
     38 C           4.4640    0.4320    0.6720 C.ar    1  UNL1       -0.0614
     39 C           5.3010   -0.6570    0.4440 C.ar    1  UNL1       -0.0617
     40 C           5.2330   -1.7710    1.2760 C.ar    1  UNL1       -0.0614
     41 C           4.3310   -1.7950    2.3410 C.ar    1  UNL1       -0.0567
     42 C          -0.7320   -2.5640    1.3950 C.ar    1  UNL1       -0.0241
     43 N          -3.1610   -3.0780   -1.2780 N.ar    1  UNL1       -0.1691
     44 H          -5.6510   -3.5460   -2.5320 H       1  UNL1        0.0239
     45 H          -5.9330   -3.3090   -4.2620 H       1  UNL1        0.0239
     46 H          -5.7080   -1.9100   -3.1980 H       1  UNL1        0.0239
     47 H          -4.0880   -2.5800   -5.8000 H       1  UNL1        0.0239
     48 H          -3.8800   -1.1210   -4.8260 H       1  UNL1        0.0239
     49 H          -2.4890   -2.1610   -5.1700 H       1  UNL1        0.0239
     50 H          -3.9430   -4.8430   -4.8090 H       1  UNL1        0.0239
     51 H          -2.3530   -4.5160   -4.1000 H       1  UNL1        0.0239
     52 H          -3.6760   -5.0940   -3.0810 H       1  UNL1        0.0239
     53 H          -2.1810   -0.4930   -3.1000 H       1  UNL1        0.0671
     54 H          -1.2930   -0.2080    0.7040 H       1  UNL1        0.1578
     55 H          -0.6230    1.6710    0.9870 H       1  UNL1        0.1564
     56 H           1.3280    2.2930   -2.1010 H       1  UNL1        0.0636
     57 H           2.9950    4.0490   -2.3280 H       1  UNL1        0.0618
     58 H           3.4330    5.6160   -0.4860 H       1  UNL1        0.0624
     59 H           2.9820    6.4300    1.7540 H       1  UNL1        0.0624
     60 H           1.7260    6.3350    3.8640 H       1  UNL1        0.0618
     61 H          -0.0510    4.6320    4.1730 H       1  UNL1        0.0618
     62 H          -0.5620    3.0480    2.4100 H       1  UNL1        0.0624
     63 H          -3.6590   -4.2580    0.9350 H       1  UNL1        0.0639
     64 H          -3.0260   -5.1510    3.1490 H       1  UNL1        0.0618
     65 H          -0.9810   -4.3390    4.2910 H       1  UNL1        0.0625
     66 H           1.8750    0.3740    5.4670 H       1  UNL1        0.0720
     67 H           2.9470    1.2720    4.3710 H       1  UNL1        0.0720
     68 H           2.8880   -1.4850    4.4940 H       1  UNL1        0.0590
     69 H           2.9160    1.2770    1.8700 H       1  UNL1        0.0621
     70 H           4.5040    1.2980    0.0140 H       1  UNL1        0.0618
     71 H           5.9980   -0.6410   -0.3900 H       1  UNL1        0.0618
     72 H           5.8780   -2.6270    1.0910 H       1  UNL1        0.0618
     73 H           4.2810   -2.6860    2.9660 H       1  UNL1        0.0621
     74 H          -0.0190   -1.9330    0.8690 H       1  UNL1        0.0646
@<TRIPOS>BOND
     1     2     1    1
     2     1    44    1
     3     1    45    1
     4     1    46    1
     5     2     3    1
     6     2     4    1
     7     2     5    1
     8     3    47    1
     9     3    48    1
    10     3    49    1
    11     4    50    1
    12     4    51    1
    13     4    52    1
    14     5     6   ar
    15     5    43   ar
    16     6     7   ar
    17     6    53    1
    18     7     8    1
    19     7    22   ar
    20     8     9   am
    21     8    54    1
    22     9    10    2
    23     9    11   am
    24    11    12    1
    25    11    55    1
    26    12    13   ar
    27    12    21   ar
    28    13    14   ar
    29    13    56    1
    30    14    15   ar
    31    14    57    1
    32    15    16   ar
    33    15    58    1
    34    16    17   ar
    35    16    21   ar
    36    17    18   ar
    37    17    59    1
    38    18    19   ar
    39    18    60    1
    40    19    20   ar
    41    19    61    1
    42    20    21   ar
    43    20    62    1
    44    22    23    1
    45    22    43   ar
    46    23    24   ar
    47    23    42   ar
    48    24    25   ar
    49    24    63    1
    50    25    26   ar
    51    25    64    1
    52    26    27   ar
    53    26    65    1
    54    27    28    1
    55    27    42   ar
    56    28    29    2
    57    28    30   am
    58    30    31   am
    59    30    35    1
    60    31    32    2
    61    31    33    1
    62    33    34    1
    63    34    35    1
    64    34    66    1
    65    34    67    1
    66    35    36    1
    67    35    68    1
    68    36    37   ar
    69    36    41   ar
    70    37    38   ar
    71    37    69    1
    72    38    39   ar
    73    38    70    1
    74    39    40   ar
    75    39    71    1
    76    40    41   ar
    77    40    72    1
    78    41    73    1
    79    42    74    1
@<TRIPOS>MOLECULE
AD3CC00794559-I00-C01
 49 52 0 0 0
SMALL
GASTEIGER

@<TRIPOS>ATOM
      1 N           3.2870    1.1660    3.9170 N.am    1  UNL1       -0.3291
      2 C           2.0310    1.1380    3.3820 C.2     1  UNL1        0.2148
      3 O           1.8810    0.9570    2.1730 O.2     1  UNL1       -0.2757
      4 C           0.8960    1.3060    4.3990 C.3     1  UNL1        0.0489
      5 C          -0.3810    1.8300    3.7860 C.ar    1  UNL1       -0.0366
      6 C          -1.0270    2.9710    4.2730 C.ar    1  UNL1       -0.0580
      7 C          -2.1690    3.4620    3.6300 C.ar    1  UNL1       -0.0595
      8 C          -2.6380    2.8570    2.4610 C.ar    1  UNL1       -0.0362
      9 C          -1.9710    1.7410    1.9480 C.ar    1  UNL1        0.0677
     10 N          -2.3210    1.2110    0.6770 N.ar    1  UNL1       -0.2177
     11 N          -3.5690    1.4070    0.1850 N.ar    1  UNL1       -0.1641
     12 C          -3.6230    0.6470   -0.9110 C.ar    1  UNL1        0.1015
     13 C          -4.9370    0.4970   -1.7630 C.ar    1  UNL1        0.0393
     14 C          -5.0430   -0.2630   -2.9090 C.ar    1  UNL1       -0.0454
     15 C          -6.3550   -0.2110   -3.4690 C.ar    1  UNL1       -0.0541
     16 C          -7.2000    0.5850   -2.7280 C.ar    1  UNL1       -0.0237
     17 S          -6.4130    1.2630   -1.3690 S.2     1  UNL1       -0.0951
     18 C          -2.3790    0.0500   -1.1960 C.ar    1  UNL1        0.0068
     19 C          -1.5120    0.5030   -0.2230 C.ar    1  UNL1        0.1303
     20 N          -0.1250    0.3770   -0.1090 N.am    1  UNL1       -0.2538
     21 C           0.6660   -0.3130   -1.0150 C.2     1  UNL1        0.3092
     22 O           0.2350   -0.9050   -1.9970 O.2     1  UNL1       -0.2521
     23 N           2.0050   -0.2480   -0.6480 N.am    1  UNL1       -0.2678
     24 C           3.1250   -0.7500   -1.3670 C.ar    1  UNL1        0.0546
     25 C           3.0140   -1.2540   -2.6700 C.ar    1  UNL1       -0.0389
     26 C           4.1320   -1.7350   -3.3590 C.ar    1  UNL1       -0.0585
     27 C           5.3840   -1.7150   -2.7570 C.ar    1  UNL1       -0.0419
     28 C           5.5240   -1.2110   -1.4630 C.ar    1  UNL1        0.0610
     29 CL          7.1160   -1.2150   -0.7820 Cl      1  UNL1       -0.0820
     30 C           4.4030   -0.7260   -0.7670 C.ar    1  UNL1        0.0804
     31 CL          4.5890   -0.0990    0.8440 Cl      1  UNL1       -0.0801
     32 C          -0.9250    1.1750    2.6760 C.ar    1  UNL1       -0.0326
     33 H           3.4720    1.2370    4.9080 H       1  UNL1        0.1449
     34 H           4.0710    1.0190    3.2910 H       1  UNL1        0.1449
     35 H           0.7020    0.3300    4.8590 H       1  UNL1        0.0407
     36 H           1.2340    1.9860    5.1900 H       1  UNL1        0.0407
     37 H          -0.6500    3.4910    5.1500 H       1  UNL1        0.0620
     38 H          -2.6730    4.3440    4.0180 H       1  UNL1        0.0618
     39 H          -3.4880    3.2900    1.9380 H       1  UNL1        0.0639
     40 H          -4.2270   -0.8320   -3.3370 H       1  UNL1        0.0629
     41 H          -6.6610   -0.7320   -4.3680 H       1  UNL1        0.0623
     42 H          -8.2420    0.8030   -2.9160 H       1  UNL1        0.0693
     43 H          -2.1310   -0.5680   -2.0460 H       1  UNL1        0.0674
     44 H           0.3650    0.9130    0.6010 H       1  UNL1        0.1578
     45 H           2.2040    0.1160    0.2840 H       1  UNL1        0.1564
     46 H           2.0630   -1.2800   -3.1950 H       1  UNL1        0.0637
     47 H           4.0160   -2.1220   -4.3690 H       1  UNL1        0.0619
     48 H           6.2470   -2.0920   -3.3010 H       1  UNL1        0.0633
     49 H          -0.4940    0.2240    2.3710 H       1  UNL1        0.0642
@<TRIPOS>BOND
     1     1     2   am
     2     1    33    1
     3     1    34    1
     4     2     3    2
     5     2     4    1
     6     4     5    1
     7     4    35    1
     8     4    36    1
     9     5     6   ar
    10     5    32   ar
    11     6     7   ar
    12     6    37    1
    13     7     8   ar
    14     7    38    1
    15     8     9   ar
    16     8    39    1
    17     9    10    1
    18     9    32   ar
    19    10    11   ar
    20    10    19   ar
    21    11    12   ar
    22    12    13    1
    23    12    18   ar
    24    13    14   ar
    25    13    17   ar
    26    14    15   ar
    27    14    40    1
    28    15    16   ar
    29    15    41    1
    30    16    17   ar
    31    16    42    1
    32    18    19   ar
    33    18    43    1
    34    19    20    1
    35    20    21   am
    36    20    44    1
    37    21    22    2
    38    21    23   am
    39    23    24    1
    40    23    45    1
    41    24    25   ar
    42    24    30   ar
    43    25    26   ar
    44    25    46    1
    45    26    27   ar
    46    26    47    1
    47    27    28   ar
    48    27    48    1
    49    28    29    1
    50    28    30   ar
    51    30    31    1
    52    32    49    1
@<TRIPOS>MOLECULE
AD3CC00795005-I00-C01
 55 57 0 0 0
SMALL
GASTEIGER

@<TRIPOS>ATOM
      1 C           1.9950    3.4150   -4.7830 C.3     1  UNL1       -0.0546
      2 C           0.6160    3.7690   -4.1920 C.3     1  UNL1        0.0063
      3 C          -0.3740    3.9570   -5.3620 C.3     1  UNL1       -0.0546
      4 C           0.7220    5.1150   -3.4460 C.3     1  UNL1       -0.0546
      5 C           0.1710    2.6730   -3.2350 C.ar    1  UNL1        0.0706
      6 C           0.7660    2.3150   -2.0010 C.ar    1  UNL1        0.0021
      7 C           0.0610    1.2260   -1.5420 C.ar    1  UNL1        0.1299
      8 N           0.3020    0.3660   -0.4760 N.am    1  UNL1       -0.2538
      9 C           1.3550    0.4840    0.4170 C.2     1  UNL1        0.3092
     10 O           2.2340    1.3340    0.3540 O.2     1  UNL1       -0.2521
     11 N           1.2450   -0.4960    1.3980 N.am    1  UNL1       -0.2692
     12 C           2.1370   -0.7600    2.4550 C.ar    1  UNL1        0.0349
     13 C           1.7400   -1.7160    3.4010 C.ar    1  UNL1       -0.0391
     14 C           2.5690   -2.0430    4.4780 C.ar    1  UNL1       -0.0416
     15 C           3.8040   -1.4160    4.6120 C.ar    1  UNL1        0.0411
     16 CL          4.8280   -1.8160    5.9350 Cl      1  UNL1       -0.0835
     17 C           4.2130   -0.4680    3.6790 C.ar    1  UNL1       -0.0416
     18 C           3.3810   -0.1420    2.6020 C.ar    1  UNL1       -0.0391
     19 N          -1.0140    1.0860   -2.4270 N.ar    1  UNL1       -0.2181
     20 C          -2.1470    0.2310   -2.3110 C.ar    1  UNL1        0.0677
     21 C          -2.8300   -0.1930   -3.4560 C.ar    1  UNL1       -0.0362
     22 C          -3.8560   -1.1360   -3.3410 C.ar    1  UNL1       -0.0595
     23 C          -4.2010   -1.6610   -2.0920 C.ar    1  UNL1       -0.0584
     24 C          -3.5600   -1.2020   -0.9380 C.ar    1  UNL1       -0.0442
     25 C          -3.8440   -1.7800    0.4270 C.3     1  UNL1       -0.0152
     26 C          -2.9010   -2.9380    0.8100 C.3     1  UNL1       -0.0029
     27 N          -1.4590   -2.6270    0.6980 N.3     1  UNL1       -0.3297
     28 C          -2.5750   -0.2150   -1.0580 C.ar    1  UNL1       -0.0330
     29 N          -0.8590    1.8680   -3.5240 N.ar    1  UNL1       -0.1691
     30 H           2.3350    4.1840   -5.4860 H       1  UNL1        0.0239
     31 H           2.7570    3.3220   -4.0010 H       1  UNL1        0.0239
     32 H           1.9610    2.4600   -5.3220 H       1  UNL1        0.0239
     33 H          -0.0470    4.7600   -6.0330 H       1  UNL1        0.0239
     34 H          -1.3760    4.2170   -5.0000 H       1  UNL1        0.0239
     35 H          -0.4650    3.0450   -5.9640 H       1  UNL1        0.0239
     36 H          -0.2380    5.3920   -2.9930 H       1  UNL1        0.0239
     37 H           1.4650    5.0750   -2.6420 H       1  UNL1        0.0239
     38 H           1.0180    5.9230   -4.1250 H       1  UNL1        0.0239
     39 H           1.6480    2.7530   -1.5530 H       1  UNL1        0.0671
     40 H          -0.2390   -0.4840   -0.4160 H       1  UNL1        0.1578
     41 H           0.3730   -1.0130    1.4140 H       1  UNL1        0.1564
     42 H           0.7770   -2.2150    3.3150 H       1  UNL1        0.0636
     43 H           2.2450   -2.7830    5.2040 H       1  UNL1        0.0633
     44 H           5.1780    0.0240    3.7770 H       1  UNL1        0.0633
     45 H           3.7390    0.5970    1.8900 H       1  UNL1        0.0636
     46 H          -2.5470    0.1700   -4.4420 H       1  UNL1        0.0639
     47 H          -4.3710   -1.4800   -4.2350 H       1  UNL1        0.0618
     48 H          -4.9770   -2.4200   -2.0290 H       1  UNL1        0.0620
     49 H          -4.8830   -2.1320    0.4660 H       1  UNL1        0.0325
     50 H          -3.7710   -0.9840    1.1790 H       1  UNL1        0.0325
     51 H          -3.1120   -3.8080    0.1760 H       1  UNL1        0.0425
     52 H          -3.1120   -3.2340    1.8430 H       1  UNL1        0.0425
     53 H          -1.2500   -2.6210   -0.3050 H       1  UNL1        0.1182
     54 H          -0.9510   -3.4430    1.0490 H       1  UNL1        0.1182
     55 H          -2.1570    0.1960   -0.1410 H       1  UNL1        0.0641
@<TRIPOS>BOND
     1     2     1    1
     2     1    30    1
     3     1    31    1
     4     1    32    1
     5     2     3    1
     6     2     4    1
     7     2     5    1
     8     3    33    1
     9     3    34    1
    10     3    35    1
    11     4    36    1
    12     4    37    1
    13     4    38    1
    14     5     6   ar
    15     5    29   ar
    16     6     7   ar
    17     6    39    1
    18     7     8    1
    19     7    19   ar
    20     8     9   am
    21     8    40    1
    22     9    10    2
    23     9    11   am
    24    11    12    1
    25    11    41    1
    26    12    13   ar
    27    12    18   ar
    28    13    14   ar
    29    13    42    1
    30    14    15   ar
    31    14    43    1
    32    15    16    1
    33    15    17   ar
    34    17    18   ar
    35    17    44    1
    36    18    45    1
    37    19    20    1
    38    19    29   ar
    39    20    21   ar
    40    20    28   ar
    41    21    22   ar
    42    21    46    1
    43    22    23   ar
    44    22    47    1
    45    23    24   ar
    46    23    48    1
    47    24    25    1
    48    24    28   ar
    49    25    26    1
    50    25    49    1
    51    25    50    1
    52    26    27    1
    53    26    51    1
    54    26    52    1
    55    27    53    1
    56    27    54    1
    57    28    55    1
@<TRIPOS>MOLECULE
AD3CC00796234-I00-C00
 52 54 0 0 0
SMALL
GASTEIGER

@<TRIPOS>ATOM
      1 C           0.3710   -1.2920   -5.1760 C.3     1  UNL1       -0.0107
      2 S          -0.9370   -1.1370   -3.9380 S.3     1  UNL1       -0.0911
      3 C           0.0020   -0.7640   -2.5280 C.ar    1  UNL1        0.1697
      4 N           1.3100   -0.7110   -2.5000 N.ar    1  UNL1       -0.2212
      5 C           1.6380   -0.3860   -1.2070 C.ar    1  UNL1        0.0979
      6 C           3.0240   -0.2430   -0.7910 C.ar    1  UNL1        0.0026
      7 C           3.9860   -1.1240   -1.3090 C.ar    1  UNL1       -0.0498
      8 C           5.3270   -1.0140   -0.9320 C.ar    1  UNL1       -0.0258
      9 C           5.7070   -0.0150   -0.0440 C.ar    1  UNL1        0.1234
     10 F           6.9920    0.0920    0.3180 F       1  UNL1       -0.2055
     11 C           4.7740    0.8790    0.4680 C.ar    1  UNL1       -0.0258
     12 C           3.4330    0.7690    0.0910 C.ar    1  UNL1       -0.0498
     13 C           0.5010   -0.2680   -0.4120 C.ar    1  UNL1        0.0774
     14 C           0.3570   -0.0480    1.0280 C.ar    1  UNL1        0.0053
     15 C           0.9060   -0.9580    1.9300 C.ar    1  UNL1       -0.0343
     16 C           0.7810   -0.6960    3.2810 C.ar    1  UNL1        0.0303
     17 N           0.1430    0.3840    3.7820 N.ar    1  UNL1       -0.2401
     18 C          -0.4100    1.2420    2.8990 C.ar    1  UNL1        0.1255
     19 N          -1.0790    2.3060    3.5060 N.am    1  UNL1       -0.2706
     20 C          -1.9370    3.2080    2.9250 C.2     1  UNL1        0.2152
     21 C          -2.4710    4.2190    3.9080 C.3     1  UNL1        0.0125
     22 O          -2.3060    3.2200    1.7530 O.2     1  UNL1       -0.2757
     23 C          -0.2970    1.0800    1.5270 C.ar    1  UNL1       -0.0123
     24 N          -0.5490   -0.4950   -1.2970 N.ar    1  UNL1       -0.3182
     25 C          -1.9700   -0.5070   -0.9690 C.3     1  UNL1        0.0258
     26 C          -2.6470    0.8250   -1.2950 C.3     1  UNL1       -0.0328
     27 C          -4.1500    0.8590   -1.0080 C.3     1  UNL1       -0.0281
     28 C          -4.5700    0.3730    0.3750 C.3     1  UNL1        0.0443
     29 O          -3.7130    0.8470    1.3980 O.3     1  UNL1       -0.3950
     30 H           0.9270   -0.3550   -5.2700 H       1  UNL1        0.0345
     31 H          -0.0790   -1.5240   -6.1450 H       1  UNL1        0.0345
     32 H           1.0580   -2.1010   -4.9130 H       1  UNL1        0.0345
     33 H           3.6890   -1.9010   -2.0110 H       1  UNL1        0.0625
     34 H           6.0720   -1.6950   -1.3290 H       1  UNL1        0.0646
     35 H           5.0950    1.6590    1.1510 H       1  UNL1        0.0646
     36 H           2.7190    1.4900    0.4800 H       1  UNL1        0.0625
     37 H           1.4300   -1.8460    1.5920 H       1  UNL1        0.0639
     38 H           1.2020   -1.3710    4.0210 H       1  UNL1        0.0830
     39 H          -1.0090    2.2670    4.5140 H       1  UNL1        0.1562
     40 H          -3.4480    3.8880    4.2690 H       1  UNL1        0.0323
     41 H          -2.5710    5.1870    3.4090 H       1  UNL1        0.0323
     42 H          -1.7950    4.3460    4.7590 H       1  UNL1        0.0323
     43 H          -0.6880    1.8230    0.8460 H       1  UNL1        0.0658
     44 H          -2.4390   -1.3310   -1.5180 H       1  UNL1        0.0492
     45 H          -2.0620   -0.7610    0.0910 H       1  UNL1        0.0492
     46 H          -2.1630    1.6370   -0.7440 H       1  UNL1        0.0283
     47 H          -2.4990    1.0720   -2.3530 H       1  UNL1        0.0283
     48 H          -4.4800    1.8980   -1.1260 H       1  UNL1        0.0288
     49 H          -4.6870    0.2760   -1.7660 H       1  UNL1        0.0288
     50 H          -5.5920    0.6960    0.5960 H       1  UNL1        0.0557
     51 H          -4.5580   -0.7210    0.4130 H       1  UNL1        0.0557
     52 H          -3.5340    1.8000    1.2550 H       1  UNL1        0.2094
@<TRIPOS>BOND
     1     1     2    1
     2     1    30    1
     3     1    31    1
     4     1    32    1
     5     2     3    1
     6     3     4   ar
     7     3    24   ar
     8     4     5   ar
     9     5     6    1
    10     5    13   ar
    11     6     7   ar
    12     6    12   ar
    13     7     8   ar
    14     7    33    1
    15     8     9   ar
    16     8    34    1
    17     9    10    1
    18     9    11   ar
    19    11    12   ar
    20    11    35    1
    21    12    36    1
    22    13    14    1
    23    13    24   ar
    24    14    15   ar
    25    14    23   ar
    26    15    16   ar
    27    15    37    1
    28    16    17   ar
    29    16    38    1
    30    17    18   ar
    31    18    19    1
    32    18    23   ar
    33    19    20   am
    34    19    39    1
    35    20    21    1
    36    20    22    2
    37    21    40    1
    38    21    41    1
    39    21    42    1
    40    23    43    1
    41    24    25    1
    42    25    26    1
    43    25    44    1
    44    25    45    1
    45    26    27    1
    46    26    46    1
    47    26    47    1
    48    27    28    1
    49    27    48    1
    50    27    49    1
    51    28    29    1
    52    28    50    1
    53    28    51    1
    54    29    52    1
@<TRIPOS>MOLECULE
AD3CC00796365-I00-C00
 51 53 0 0 0
SMALL
GASTEIGER

@<TRIPOS>ATOM
      1 C           3.4670    1.7340   -2.7560 C.3     1  UNL1        0.0817
      2 O           2.9590    2.1940   -1.5030 O.3     1  UNL1       -0.4679
      3 C           3.2370    1.3750   -0.4510 C.2     1  UNL1        0.3085
      4 O           3.8460    0.3160   -0.5180 O.2     1  UNL1       -0.2508
      5 C           2.7060    1.9700    0.8230 C.3     1  UNL1        0.0629
      6 C           1.1890    1.8790    0.8870 C.3     1  UNL1        0.0358
      7 N           0.7080    0.5960    1.3800 N.ar    1  UNL1       -0.3176
      8 C           0.6000    0.2280    2.7010 C.ar    1  UNL1        0.1697
      9 S           1.0260    1.2690    4.0220 S.3     1  UNL1       -0.0911
     10 C           0.6050    0.2110    5.4260 C.3     1  UNL1       -0.0107
     11 N           0.1630   -0.9980    2.8340 N.ar    1  UNL1       -0.2212
     12 C          -0.0540   -1.4500    1.5560 C.ar    1  UNL1        0.0979
     13 C          -0.5450   -2.7960    1.3020 C.ar    1  UNL1        0.0026
     14 C          -1.5160   -3.0580    0.3240 C.ar    1  UNL1       -0.0498
     15 C          -1.9660   -4.3630    0.1070 C.ar    1  UNL1       -0.0258
     16 C          -1.4530   -5.4020    0.8750 C.ar    1  UNL1        0.1234
     17 F          -1.8870   -6.6520    0.6650 F       1  UNL1       -0.2055
     18 C          -0.5030   -5.1620    1.8590 C.ar    1  UNL1       -0.0258
     19 C          -0.0530   -3.8580    2.0760 C.ar    1  UNL1       -0.0498
     20 C           0.2860   -0.4840    0.6140 C.ar    1  UNL1        0.0774
     21 C           0.3060   -0.5440   -0.8470 C.ar    1  UNL1        0.0053
     22 C           1.1480   -1.4450   -1.4940 C.ar    1  UNL1       -0.0343
     23 C           1.1150   -1.4940   -2.8730 C.ar    1  UNL1        0.0303
     24 N           0.3190   -0.7090   -3.6320 N.ar    1  UNL1       -0.2401
     25 C          -0.4930    0.1590   -2.9940 C.ar    1  UNL1        0.1255
     26 N          -1.2720    0.9230   -3.8640 N.am    1  UNL1       -0.2706
     27 C          -2.1270    1.9520   -3.5580 C.2     1  UNL1        0.2152
     28 C          -2.8060    2.5310   -4.7740 C.3     1  UNL1        0.0125
     29 O          -2.3340    2.4180   -2.4420 O.2     1  UNL1       -0.2757
     30 C          -0.5390    0.2630   -1.6120 C.ar    1  UNL1       -0.0123
     31 H           3.1110    2.4140   -3.5350 H       1  UNL1        0.0661
     32 H           4.5610    1.7560   -2.7490 H       1  UNL1        0.0661
     33 H           3.1040    0.7290   -2.9830 H       1  UNL1        0.0661
     34 H           3.1920    1.4690    1.6680 H       1  UNL1        0.0395
     35 H           3.0260    3.0180    0.8560 H       1  UNL1        0.0395
     36 H           0.7960    2.6500    1.5600 H       1  UNL1        0.0498
     37 H           0.7280    2.0780   -0.0830 H       1  UNL1        0.0498
     38 H          -0.4580   -0.0450    5.4120 H       1  UNL1        0.0345
     39 H           1.2020   -0.7050    5.4130 H       1  UNL1        0.0345
     40 H           0.8170    0.7470    6.3550 H       1  UNL1        0.0345
     41 H          -1.9430   -2.2510   -0.2660 H       1  UNL1        0.0625
     42 H          -2.7170   -4.5710   -0.6480 H       1  UNL1        0.0646
     43 H          -0.1220   -5.9860    2.4540 H       1  UNL1        0.0646
     44 H           0.6860   -3.6680    2.8530 H       1  UNL1        0.0625
     45 H           1.8210   -2.0930   -0.9390 H       1  UNL1        0.0639
     46 H           1.7530   -2.1810   -3.4220 H       1  UNL1        0.0830
     47 H          -1.1130    0.6740   -4.8310 H       1  UNL1        0.1562
     48 H          -2.2560    3.4160   -5.1040 H       1  UNL1        0.0323
     49 H          -3.8310    2.8100   -4.5140 H       1  UNL1        0.0323
     50 H          -2.8500    1.8060   -5.5920 H       1  UNL1        0.0323
     51 H          -1.2230    0.9410   -1.1150 H       1  UNL1        0.0658
@<TRIPOS>BOND
     1     1     2    1
     2     1    31    1
     3     1    32    1
     4     1    33    1
     5     2     3    1
     6     3     4    2
     7     3     5    1
     8     5     6    1
     9     5    34    1
    10     5    35    1
    11     6     7    1
    12     6    36    1
    13     6    37    1
    14     7     8   ar
    15     7    20   ar
    16     8     9    1
    17     8    11   ar
    18     9    10    1
    19    10    38    1
    20    10    39    1
    21    10    40    1
    22    11    12   ar
    23    12    13    1
    24    12    20   ar
    25    13    14   ar
    26    13    19   ar
    27    14    15   ar
    28    14    41    1
    29    15    16   ar
    30    15    42    1
    31    16    17    1
    32    16    18   ar
    33    18    19   ar
    34    18    43    1
    35    19    44    1
    36    20    21    1
    37    21    22   ar
    38    21    30   ar
    39    22    23   ar
    40    22    45    1
    41    23    24   ar
    42    23    46    1
    43    24    25   ar
    44    25    26    1
    45    25    30   ar
    46    26    27   am
    47    26    47    1
    48    27    28    1
    49    27    29    2
    50    28    48    1
    51    28    49    1
    52    28    50    1
    53    30    51    1
@<TRIPOS>MOLECULE
AD3CC00796408-I00-C00
 52 55 0 0 0
SMALL
GASTEIGER

@<TRIPOS>ATOM
      1 C          -2.8940    5.5190   -2.1440 C.3     1  UNL1       -0.0107
      2 S          -1.7870    5.1800   -0.7560 S.3     1  UNL1       -0.0911
      3 C          -2.2770    3.5690   -0.3460 C.ar    1  UNL1        0.1695
      4 N          -3.2580    2.9160   -0.9160 N.ar    1  UNL1       -0.2212
      5 C          -3.2610    1.6730   -0.3300 C.ar    1  UNL1        0.0978
      6 C          -4.2140    0.6490   -0.7280 C.ar    1  UNL1        0.0026
      7 C          -3.8380   -0.6940   -0.8810 C.ar    1  UNL1       -0.0498
      8 C          -4.7800   -1.6510   -1.2660 C.ar    1  UNL1       -0.0258
      9 C          -6.0930   -1.2640   -1.5100 C.ar    1  UNL1        0.1234
     10 F          -6.9940   -2.1830   -1.8790 F       1  UNL1       -0.2055
     11 C          -6.4820    0.0640   -1.3810 C.ar    1  UNL1       -0.0258
     12 C          -5.5410    1.0210   -0.9950 C.ar    1  UNL1       -0.0498
     13 C          -2.2800    1.5780    0.6530 C.ar    1  UNL1        0.0772
     14 C          -1.9330    0.4950    1.5730 C.ar    1  UNL1        0.0053
     15 C          -2.8820    0.0040    2.4680 C.ar    1  UNL1       -0.0343
     16 C          -2.5130   -1.0310    3.3040 C.ar    1  UNL1        0.0303
     17 N          -1.2830   -1.5900    3.3090 N.ar    1  UNL1       -0.2401
     18 C          -0.3710   -1.1030    2.4420 C.ar    1  UNL1        0.1255
     19 N           0.8650   -1.7420    2.5310 N.am    1  UNL1       -0.2701
     20 C           2.0320   -1.4470    1.8610 C.2     1  UNL1        0.2213
     21 O           2.1860   -0.5240    1.0690 O.2     1  UNL1       -0.2751
     22 C           3.1630   -2.4120    2.2270 C.3     1  UNL1        0.0359
     23 C           2.8590   -3.8350    1.7250 C.3     1  UNL1       -0.0419
     24 C           4.0660   -4.2560    0.8940 C.3     1  UNL1       -0.0523
     25 C           4.6400   -2.9460    0.3890 C.3     1  UNL1       -0.0523
     26 C           4.5090   -2.0320    1.5970 C.3     1  UNL1       -0.0419
     27 C          -0.6570   -0.0750    1.5570 C.ar    1  UNL1       -0.0123
     28 N          -1.6670    2.8230    0.6310 N.ar    1  UNL1       -0.3213
     29 C          -0.5970    3.2670    1.4980 C.3     1  UNL1        0.0143
     30 H          -3.9390    5.4750   -1.8250 H       1  UNL1        0.0345
     31 H          -2.7290    4.8030   -2.9540 H       1  UNL1        0.0345
     32 H          -2.6920    6.5230   -2.5260 H       1  UNL1        0.0345
     33 H          -2.8090   -1.0050   -0.7190 H       1  UNL1        0.0625
     34 H          -4.4950   -2.6910   -1.3860 H       1  UNL1        0.0646
     35 H          -7.5090    0.3470   -1.5860 H       1  UNL1        0.0646
     36 H          -5.8420    2.0630   -0.9040 H       1  UNL1        0.0625
     37 H          -3.8860    0.4120    2.5110 H       1  UNL1        0.0639
     38 H          -3.2180   -1.4530    4.0150 H       1  UNL1        0.0830
     39 H           0.8610   -2.4830    3.2190 H       1  UNL1        0.1562
     40 H           3.2620   -2.3960    3.3200 H       1  UNL1        0.0394
     41 H           1.9570   -3.8620    1.1020 H       1  UNL1        0.0272
     42 H           2.6990   -4.5280    2.5580 H       1  UNL1        0.0272
     43 H           4.7970   -4.7680    1.5310 H       1  UNL1        0.0265
     44 H           3.7930   -4.9340    0.0810 H       1  UNL1        0.0265
     45 H           5.6770   -3.0470    0.0550 H       1  UNL1        0.0265
     46 H           4.0440   -2.5630   -0.4470 H       1  UNL1        0.0265
     47 H           5.3160   -2.2550    2.3070 H       1  UNL1        0.0272
     48 H           4.5990   -0.9770    1.3230 H       1  UNL1        0.0272
     49 H           0.0780    0.2850    0.8470 H       1  UNL1        0.0658
     50 H          -0.5790    2.6680    2.4110 H       1  UNL1        0.0456
     51 H           0.3460    3.1630    0.9570 H       1  UNL1        0.0456
     52 H          -0.7660    4.3070    1.7860 H       1  UNL1        0.0456
@<TRIPOS>BOND
     1     1     2    1
     2     1    30    1
     3     1    31    1
     4     1    32    1
     5     2     3    1
     6     3     4   ar
     7     3    28   ar
     8     4     5   ar
     9     5     6    1
    10     5    13   ar
    11     6     7   ar
    12     6    12   ar
    13     7     8   ar
    14     7    33    1
    15     8     9   ar
    16     8    34    1
    17     9    10    1
    18     9    11   ar
    19    11    12   ar
    20    11    35    1
    21    12    36    1
    22    13    14    1
    23    13    28   ar
    24    14    15   ar
    25    14    27   ar
    26    15    16   ar
    27    15    37    1
    28    16    17   ar
    29    16    38    1
    30    17    18   ar
    31    18    19    1
    32    18    27   ar
    33    19    20   am
    34    19    39    1
    35    20    21    2
    36    20    22    1
    37    22    23    1
    38    22    26    1
    39    22    40    1
    40    23    24    1
    41    23    41    1
    42    23    42    1
    43    24    25    1
    44    24    43    1
    45    24    44    1
    46    25    26    1
    47    25    45    1
    48    25    46    1
    49    26    47    1
    50    26    48    1
    51    27    49    1
    52    28    29    1
    53    29    50    1
    54    29    51    1
    55    29    52    1
@<TRIPOS>MOLECULE
AD3CC00798838-I00-C00
 40 42 0 0 0
SMALL
GASTEIGER

@<TRIPOS>ATOM
      1 C           3.5200    2.8580   -2.4060 C.3     1  UNL1        0.0788
      2 O           3.1650    1.5610   -1.9440 O.3     1  UNL1       -0.4951
      3 C           1.8600    1.1850   -2.1090 C.ar    1  UNL1        0.1201
      4 C           1.5530   -0.0870   -1.6190 C.ar    1  UNL1       -0.0197
      5 C           0.2570   -0.5980   -1.7210 C.ar    1  UNL1       -0.0547
      6 C          -0.7550    0.1600   -2.3210 C.ar    1  UNL1       -0.0384
      7 C          -2.1630   -0.3720   -2.4220 C.3     1  UNL1        0.0494
      8 C          -3.1170    0.2940   -1.4440 C.2     1  UNL1        0.2215
      9 O          -3.9540    1.1080   -1.8280 O.2     1  UNL1       -0.2751
     10 N          -2.9280   -0.1340   -0.1470 N.am    1  UNL1       -0.2842
     11 C          -3.6440    0.2740    0.9740 C.ar    1  UNL1        0.0498
     12 C          -4.7420    1.1850    1.0240 C.ar    1  UNL1       -0.0328
     13 C          -5.2180    1.3700    2.3040 C.ar    1  UNL1       -0.0219
     14 S          -4.3470    0.4480    3.4480 S.2     1  UNL1       -0.0932
     15 C          -3.3340   -0.2020    2.2380 C.ar    1  UNL1        0.0601
     16 C          -2.1770   -1.2230    2.5190 C.ar    1  UNL1        0.0970
     17 C          -1.8090   -1.7230    3.7470 C.ar    1  UNL1        0.0321
     18 N          -0.7590   -2.5550    3.4840 N.ar    1  UNL1       -0.3392
     19 C          -0.0090   -3.3190    4.4480 C.3     1  UNL1        0.0127
     20 C          -0.5330   -2.5380    2.1370 C.ar    1  UNL1        0.0964
     21 N          -1.3780   -1.7430    1.5180 N.ar    1  UNL1       -0.2352
     22 C          -0.4450    1.4370   -2.8070 C.ar    1  UNL1       -0.0547
     23 C           0.8540    1.9460   -2.7030 C.ar    1  UNL1       -0.0197
     24 H           2.9620    3.6350   -1.8730 H       1  UNL1        0.0660
     25 H           3.3800    2.9430   -3.4890 H       1  UNL1        0.0660
     26 H           4.5830    3.0080   -2.1960 H       1  UNL1        0.0660
     27 H           2.3310   -0.6830   -1.1500 H       1  UNL1        0.0654
     28 H           0.0480   -1.5880   -1.3220 H       1  UNL1        0.0622
     29 H          -2.5400   -0.2190   -3.4410 H       1  UNL1        0.0407
     30 H          -2.1840   -1.4560   -2.2550 H       1  UNL1        0.0407
     31 H          -2.1600   -0.7790    0.0530 H       1  UNL1        0.1548
     32 H          -5.1710    1.6900    0.1670 H       1  UNL1        0.0642
     33 H          -6.0360    2.0040    2.6190 H       1  UNL1        0.0694
     34 H          -2.1900   -1.5560    4.7440 H       1  UNL1        0.0831
     35 H           1.0570   -3.1490    4.2770 H       1  UNL1        0.0456
     36 H          -0.2550   -4.3760    4.3140 H       1  UNL1        0.0456
     37 H          -0.2760   -2.9970    5.4580 H       1  UNL1        0.0456
     38 H           0.2520   -3.1170    1.6670 H       1  UNL1        0.1029
     39 H          -1.2200    2.0490   -3.2670 H       1  UNL1        0.0622
     40 H           1.0420    2.9400   -3.0940 H       1  UNL1        0.0654
@<TRIPOS>BOND
     1     1     2    1
     2     1    24    1
     3     1    25    1
     4     1    26    1
     5     2     3    1
     6     3     4   ar
     7     3    23   ar
     8     4     5   ar
     9     4    27    1
    10     5     6   ar
    11     5    28    1
    12     6     7    1
    13     6    22   ar
    14     7     8    1
    15     7    29    1
    16     7    30    1
    17     8     9    2
    18     8    10   am
    19    10    11    1
    20    10    31    1
    21    11    12   ar
    22    11    15   ar
    23    12    13   ar
    24    12    32    1
    25    13    14   ar
    26    13    33    1
    27    14    15   ar
    28    15    16    1
    29    16    17   ar
    30    16    21   ar
    31    17    18   ar
    32    17    34    1
    33    18    19    1
    34    18    20   ar
    35    19    35    1
    36    19    36    1
    37    19    37    1
    38    20    21   ar
    39    20    38    1
    40    22    23   ar
    41    22    39    1
    42    23    40    1
@<TRIPOS>MOLECULE
AD3CC01163159-I00-C00
 57 61 0 0 0
SMALL
GASTEIGER

@<TRIPOS>ATOM
      1 C          -0.5040   -4.7460   -3.2570 C.3     1  UNL1       -0.0223
      2 C          -1.4270   -3.7510   -2.6220 C.ar    1  UNL1        0.0390
      3 C          -2.7390   -4.0990   -2.3250 C.ar    1  UNL1       -0.0406
      4 C          -3.5670   -3.1480   -1.7390 C.ar    1  UNL1       -0.0580
      5 C          -3.0620   -1.8800   -1.4670 C.ar    1  UNL1       -0.0341
      6 C          -1.7380   -1.5990   -1.7930 C.ar    1  UNL1        0.0918
      7 C          -1.1530   -0.2740   -1.5160 C.ar    1  UNL1        0.1185
      8 N          -1.7470    0.5860   -0.6580 N.ar    1  UNL1       -0.1686
      9 N          -0.9290    1.6570   -0.6280 N.ar    1  UNL1       -0.2614
     10 C          -1.2660    2.7810    0.2270 C.3     1  UNL1        0.1179
     11 C          -1.0760    2.4690    1.6990 C.2     1  UNL1        0.2387
     12 O          -0.5310    3.2900    2.4370 O.2     1  UNL1       -0.2734
     13 N          -1.6160    1.2580    2.0990 N.am    1  UNL1       -0.2840
     14 C          -1.6540    0.7080    3.3950 C.ar    1  UNL1        0.0342
     15 C          -2.1100   -0.6110    3.5120 C.ar    1  UNL1       -0.0404
     16 C          -2.1840   -1.2310    4.7600 C.ar    1  UNL1       -0.0593
     17 C          -1.8000   -0.5340    5.9040 C.ar    1  UNL1       -0.0495
     18 C          -1.3370    0.7830    5.8020 C.ar    1  UNL1        0.0382
     19 C          -0.9410    1.4850    7.0540 C.2     1  UNL1        0.2416
     20 N          -0.1430    2.5900    6.9430 N.am    1  UNL1       -0.3253
     21 O          -1.2860    1.0750    8.1560 O.2     1  UNL1       -0.2704
     22 C          -1.2800    1.4050    4.5460 C.ar    1  UNL1       -0.0284
     23 C           0.1580    1.5380   -1.4340 C.ar    1  UNL1        0.0344
     24 C           0.0570    0.3000   -2.0330 C.ar    1  UNL1        0.0290
     25 C           1.0310   -0.1790   -2.9960 C.ar    1  UNL1       -0.0136
     26 C           2.3880   -0.2250   -2.6700 C.ar    1  UNL1       -0.0519
     27 C           3.3220   -0.6850   -3.6070 C.ar    1  UNL1       -0.0352
     28 C           2.9400   -1.1040   -4.8730 C.ar    1  UNL1        0.0710
     29 N           3.8760   -1.5390   -5.7370 N.ar    1  UNL1       -0.2550
     30 C           3.4690   -1.9430   -6.9600 C.ar    1  UNL1        0.0283
     31 C           2.1510   -1.9360   -7.3770 C.ar    1  UNL1       -0.0430
     32 C           1.1880   -1.4850   -6.4830 C.ar    1  UNL1       -0.0511
     33 C           1.5700   -1.0560   -5.2050 C.ar    1  UNL1        0.0010
     34 C           0.6280   -0.5910   -4.2700 C.ar    1  UNL1       -0.0447
     35 N          -0.9240   -2.5220   -2.3610 N.ar    1  UNL1       -0.2503
     36 H           0.4860   -4.3090   -3.4230 H       1  UNL1        0.0292
     37 H          -0.3860   -5.6200   -2.6090 H       1  UNL1        0.0292
     38 H          -0.9010   -5.0660   -4.2250 H       1  UNL1        0.0292
     39 H          -3.1150   -5.0940   -2.5450 H       1  UNL1        0.0635
     40 H          -4.5970   -3.3910   -1.4950 H       1  UNL1        0.0619
     41 H          -3.6960   -1.1260   -1.0120 H       1  UNL1        0.0639
     42 H          -0.6240    3.6220   -0.0540 H       1  UNL1        0.0605
     43 H          -2.3100    3.0520    0.0370 H       1  UNL1        0.0605
     44 H          -1.9390    0.6490    1.3420 H       1  UNL1        0.1549
     45 H          -2.4090   -1.1760    2.6310 H       1  UNL1        0.0636
     46 H          -2.5400   -2.2550    4.8420 H       1  UNL1        0.0618
     47 H          -1.8590   -1.0200    6.8760 H       1  UNL1        0.0625
     48 H           0.1970    2.9880    7.8080 H       1  UNL1        0.1453
     49 H           0.3400    2.8400    6.0920 H       1  UNL1        0.1453
     50 H          -0.9740    2.4420    4.4820 H       1  UNL1        0.0644
     51 H           0.8970    2.3230   -1.5240 H       1  UNL1        0.0833
     52 H           2.7340    0.0800   -1.6860 H       1  UNL1        0.0624
     53 H           4.3750   -0.7210   -3.3380 H       1  UNL1        0.0639
     54 H           4.2620   -2.2850   -7.6190 H       1  UNL1        0.0830
     55 H           1.8810   -2.2720   -8.3710 H       1  UNL1        0.0633
     56 H           0.1440   -1.4690   -6.7840 H       1  UNL1        0.0625
     57 H          -0.4270   -0.5630   -4.5350 H       1  UNL1        0.0630
@<TRIPOS>BOND
     1     1     2    1
     2     1    36    1
     3     1    37    1
     4     1    38    1
     5     2     3   ar
     6     2    35   ar
     7     3     4   ar
     8     3    39    1
     9     4     5   ar
    10     4    40    1
    11     5     6   ar
    12     5    41    1
    13     6     7    1
    14     6    35   ar
    15     7     8   ar
    16     7    24   ar
    17     8     9   ar
    18     9    10    1
    19     9    23   ar
    20    10    11    1
    21    10    42    1
    22    10    43    1
    23    11    12    2
    24    11    13   am
    25    13    14    1
    26    13    44    1
    27    14    15   ar
    28    14    22   ar
    29    15    16   ar
    30    15    45    1
    31    16    17   ar
    32    16    46    1
    33    17    18   ar
    34    17    47    1
    35    18    19    1
    36    18    22   ar
    37    19    20   am
    38    19    21    2
    39    20    48    1
    40    20    49    1
    41    22    50    1
    42    23    24   ar
    43    23    51    1
    44    24    25    1
    45    25    26   ar
    46    25    34   ar
    47    26    27   ar
    48    26    52    1
    49    27    28   ar
    50    27    53    1
    51    28    29   ar
    52    28    33   ar
    53    29    30   ar
    54    30    31   ar
    55    30    54    1
    56    31    32   ar
    57    31    55    1
    58    32    33   ar
    59    32    56    1
    60    33    34   ar
    61    34    57    1
@<TRIPOS>MOLECULE
AD3CC01163169-I00-C01
 56 60 0 0 0
SMALL
GASTEIGER

@<TRIPOS>ATOM
      1 C           1.4130    4.8430    0.0430 C.3     1  UNL1       -0.0223
      2 C           1.0210    4.1840   -1.2450 C.ar    1  UNL1        0.0390
      3 C           1.0210    4.9060   -2.4320 C.ar    1  UNL1       -0.0406
      4 C           0.6540    4.2600   -3.6070 C.ar    1  UNL1       -0.0580
      5 C           0.3010    2.9140   -3.5630 C.ar    1  UNL1       -0.0341
      6 C           0.3270    2.2500   -2.3400 C.ar    1  UNL1        0.0918
      7 C          -0.0470    0.8290   -2.2420 C.ar    1  UNL1        0.1185
      8 N          -0.6900    0.2020   -3.2510 N.ar    1  UNL1       -0.1690
      9 N          -0.9320   -1.0340   -2.7860 N.ar    1  UNL1       -0.2698
     10 C          -1.6580   -1.9730   -3.6160 C.3     1  UNL1        0.0472
     11 C          -3.1750   -1.7920   -3.5740 C.3     1  UNL1        0.0120
     12 C          -3.8050   -2.4970   -2.3890 C.2     1  UNL1        0.0547
     13 S          -4.2190   -4.1300   -2.5540 S.2     1  UNL1       -0.0400
     14 N          -4.0450   -1.9650   -1.1660 N.am    1  UNL1       -0.3120
     15 C          -3.9210   -0.6990   -0.5610 C.ar    1  UNL1        0.0315
     16 C          -4.2400   -0.6470    0.8070 C.ar    1  UNL1       -0.0405
     17 C          -4.1390    0.5410    1.5370 C.ar    1  UNL1       -0.0600
     18 C          -3.7150    1.7030    0.9060 C.ar    1  UNL1       -0.0616
     19 C          -3.4100    1.6720   -0.4500 C.ar    1  UNL1       -0.0600
     20 C          -3.5230    0.4810   -1.1810 C.ar    1  UNL1       -0.0405
     21 C          -0.4240   -1.2650   -1.5470 C.ar    1  UNL1        0.0339
     22 C           0.1460   -0.0750   -1.1460 C.ar    1  UNL1        0.0290
     23 C           0.7680    0.0920    0.1510 C.ar    1  UNL1       -0.0136
     24 C           2.1200    0.4150    0.2550 C.ar    1  UNL1       -0.0519
     25 C           2.7070    0.5790    1.5150 C.ar    1  UNL1       -0.0352
     26 C           1.9770    0.4290    2.6860 C.ar    1  UNL1        0.0710
     27 N           2.5860    0.5990    3.8740 N.ar    1  UNL1       -0.2550
     28 C           1.8440    0.4480    4.9930 C.ar    1  UNL1        0.0283
     29 C           0.4990    0.1310    4.9910 C.ar    1  UNL1       -0.0430
     30 C          -0.1270   -0.0450    3.7640 C.ar    1  UNL1       -0.0511
     31 C           0.6090    0.1010    2.5810 C.ar    1  UNL1        0.0010
     32 C           0.0140   -0.0690    1.3180 C.ar    1  UNL1       -0.0447
     33 N           0.6770    2.8770   -1.1880 N.ar    1  UNL1       -0.2503
     34 H           1.3560    4.1340    0.8760 H       1  UNL1        0.0292
     35 H           0.7410    5.6790    0.2600 H       1  UNL1        0.0292
     36 H           2.4410    5.2130   -0.0200 H       1  UNL1        0.0292
     37 H           1.3020    5.9540   -2.4460 H       1  UNL1        0.0635
     38 H           0.6430    4.7970   -4.5510 H       1  UNL1        0.0619
     39 H           0.0120    2.3940   -4.4710 H       1  UNL1        0.0639
     40 H          -1.3540   -2.9820   -3.3150 H       1  UNL1        0.0512
     41 H          -1.2970   -1.8220   -4.6410 H       1  UNL1        0.0512
     42 H          -3.5850   -2.2420   -4.4890 H       1  UNL1        0.0349
     43 H          -3.4770   -0.7480   -3.6330 H       1  UNL1        0.0349
     44 H          -4.4280   -2.6750   -0.5460 H       1  UNL1        0.1523
     45 H          -4.5670   -1.5410    1.3350 H       1  UNL1        0.0636
     46 H          -4.3860    0.5550    2.5950 H       1  UNL1        0.0618
     47 H          -3.6190    2.6300    1.4650 H       1  UNL1        0.0618
     48 H          -3.0690    2.5760   -0.9500 H       1  UNL1        0.0618
     49 H          -3.2720    0.5460   -2.2280 H       1  UNL1        0.0636
     50 H          -0.5210   -2.2210   -1.0530 H       1  UNL1        0.0833
     51 H           2.7250    0.5550   -0.6370 H       1  UNL1        0.0624
     52 H           3.7610    0.8380    1.5830 H       1  UNL1        0.0639
     53 H           2.3820    0.5960    5.9250 H       1  UNL1        0.0830
     54 H          -0.0480    0.0230    5.9210 H       1  UNL1        0.0633
     55 H          -1.1840   -0.2930    3.7310 H       1  UNL1        0.0625
     56 H          -1.0430   -0.3090    1.2430 H       1  UNL1        0.0630
@<TRIPOS>BOND
     1     1     2    1
     2     1    34    1
     3     1    35    1
     4     1    36    1
     5     2     3   ar
     6     2    33   ar
     7     3     4   ar
     8     3    37    1
     9     4     5   ar
    10     4    38    1
    11     5     6   ar
    12     5    39    1
    13     6     7    1
    14     6    33   ar
    15     7     8   ar
    16     7    22   ar
    17     8     9   ar
    18     9    10    1
    19     9    21   ar
    20    10    11    1
    21    10    40    1
    22    10    41    1
    23    11    12    1
    24    11    42    1
    25    11    43    1
    26    12    13    2
    27    12    14    1
    28    14    15    1
    29    14    44    1
    30    15    16   ar
    31    15    20   ar
    32    16    17   ar
    33    16    45    1
    34    17    18   ar
    35    17    46    1
    36    18    19   ar
    37    18    47    1
    38    19    20   ar
    39    19    48    1
    40    20    49    1
    41    21    22   ar
    42    21    50    1
    43    22    23    1
    44    23    24   ar
    45    23    32   ar
    46    24    25   ar
    47    24    51    1
    48    25    26   ar
    49    25    52    1
    50    26    27   ar
    51    26    31   ar
    52    27    28   ar
    53    28    29   ar
    54    28    53    1
    55    29    30   ar
    56    29    54    1
    57    30    31   ar
    58    30    55    1
    59    31    32   ar
    60    32    56    1
@<TRIPOS>MOLECULE
AD3CC01165662-I00-C00
 43 45 0 0 0
SMALL
GASTEIGER

@<TRIPOS>ATOM
      1 C           0.3210    0.6480    5.3630 C.3     1  UNL1        0.0125
      2 C          -0.2060    0.4680    3.9610 C.2     1  UNL1        0.2152
      3 O          -1.0730   -0.3650    3.7200 O.2     1  UNL1       -0.2757
      4 N           0.3640    1.3350    3.0620 N.am    1  UNL1       -0.2706
      5 C           0.1150    1.4490    1.6940 C.ar    1  UNL1        0.1255
      6 C          -0.7520    0.6310    0.9850 C.ar    1  UNL1       -0.0123
      7 C          -0.9210    0.8530   -0.3850 C.ar    1  UNL1        0.0054
      8 C          -1.8190    0.0100   -1.1730 C.ar    1  UNL1        0.0804
      9 C          -1.5820   -0.8210   -2.2610 C.ar    1  UNL1        0.1016
     10 C          -0.3040   -1.0990   -2.8970 C.ar    1  UNL1        0.0028
     11 C           0.8600   -1.3310   -2.1480 C.ar    1  UNL1       -0.0498
     12 C           2.0720   -1.5980   -2.7910 C.ar    1  UNL1       -0.0258
     13 C           2.1170   -1.6450   -4.1790 C.ar    1  UNL1        0.1234
     14 F           3.2790   -1.9010   -4.7930 F       1  UNL1       -0.2055
     15 C           0.9730   -1.4350   -4.9390 C.ar    1  UNL1       -0.0258
     16 C          -0.2380   -1.1680   -4.2970 C.ar    1  UNL1       -0.0498
     17 N          -2.7500   -1.3740   -2.7270 N.ar    1  UNL1       -0.1829
     18 C          -3.6960   -0.9440   -1.9190 C.ar    1  UNL1        0.3265
     19 S          -5.4280   -1.4510   -2.1050 S.3     1  UNL1        0.0228
     20 C          -5.1080   -3.1990   -2.4390 C.3     1  UNL1        0.1055
     21 O          -6.1310   -1.3340   -0.6060 O.co2   1  UNL1       -0.6111
     22 N          -3.1900   -0.0720   -0.9850 N.ar    1  UNL1       -0.2861
     23 C          -3.9710    0.6560   -0.0090 C.3     1  UNL1        0.0178
     24 C          -0.2060    1.8790   -0.9980 C.ar    1  UNL1       -0.0343
     25 C           0.6420    2.6390   -0.2150 C.ar    1  UNL1        0.0303
     26 N           0.8140    2.4460    1.1110 N.ar    1  UNL1       -0.2401
     27 H           1.3130    1.1100    5.3640 H       1  UNL1        0.0323
     28 H          -0.3710    1.2770    5.9280 H       1  UNL1        0.0323
     29 H           0.4040   -0.3310    5.8440 H       1  UNL1        0.0323
     30 H           1.0360    2.0190    3.3820 H       1  UNL1        0.1562
     31 H          -1.2900   -0.1780    1.4640 H       1  UNL1        0.0658
     32 H           0.8340   -1.3220   -1.0610 H       1  UNL1        0.0625
     33 H           2.9750   -1.7770   -2.2170 H       1  UNL1        0.0646
     34 H           1.0280   -1.4860   -6.0210 H       1  UNL1        0.0646
     35 H          -1.1360   -1.0120   -4.8920 H       1  UNL1        0.0625
     36 H          -4.4940   -3.6280   -1.6420 H       1  UNL1        0.0809
     37 H          -4.6040   -3.3050   -3.4030 H       1  UNL1        0.0809
     38 H          -6.0650   -3.7250   -2.4770 H       1  UNL1        0.0809
     39 H          -4.1710   -0.0070    0.8350 H       1  UNL1        0.0458
     40 H          -4.8990    0.9990   -0.4730 H       1  UNL1        0.0458
     41 H          -3.4230    1.5380    0.3280 H       1  UNL1        0.0458
     42 H          -0.3000    2.0830   -2.0590 H       1  UNL1        0.0639
     43 H           1.2250    3.4480   -0.6460 H       1  UNL1        0.0830
@<TRIPOS>UNITY_ATOM_ATTR
19 1
charge 1
21 1
charge -1
@<TRIPOS>BOND
     1     1     2    1
     2     1    27    1
     3     1    28    1
     4     1    29    1
     5     2     3    2
     6     2     4   am
     7     4     5    1
     8     4    30    1
     9     5     6   ar
    10     5    26   ar
    11     6     7   ar
    12     6    31    1
    13     7     8    1
    14     7    24   ar
    15     8     9   ar
    16     8    22   ar
    17     9    10    1
    18     9    17   ar
    19    10    11   ar
    20    10    16   ar
    21    11    12   ar
    22    11    32    1
    23    12    13   ar
    24    12    33    1
    25    13    14    1
    26    13    15   ar
    27    15    16   ar
    28    15    34    1
    29    16    35    1
    30    17    18   ar
    31    18    19    1
    32    18    22   ar
    33    19    20    1
    34    19    21    1
    35    20    36    1
    36    20    37    1
    37    20    38    1
    38    22    23    1
    39    23    39    1
    40    23    40    1
    41    23    41    1
    42    24    25   ar
    43    24    42    1
    44    25    26   ar
    45    25    43    1
@<TRIPOS>MOLECULE
AD3CC01165667-I00-C00
 40 42 0 0 0
SMALL
GASTEIGER

@<TRIPOS>ATOM
      1 C          -3.2220   -0.6170   -6.2270 C.3     1  UNL1        0.0125
      2 C          -2.7080   -0.7200   -4.8130 C.2     1  UNL1        0.2152
      3 O          -3.4790   -0.9100   -3.8780 O.2     1  UNL1       -0.2757
      4 N          -1.3420   -0.6090   -4.7320 N.am    1  UNL1       -0.2706
      5 C          -0.5350   -0.6630   -3.5960 C.ar    1  UNL1        0.1255
      6 C          -1.0150   -0.8060   -2.3020 C.ar    1  UNL1       -0.0123
      7 C          -0.1040   -0.8480   -1.2410 C.ar    1  UNL1        0.0052
      8 C          -0.5710   -1.0050    0.1340 C.ar    1  UNL1        0.0778
      9 N          -1.4850   -1.9720    0.4960 N.ar    1  UNL1       -0.2969
     10 C          -1.6490   -1.9260    1.8500 C.ar    1  UNL1        0.3242
     11 S          -2.7360   -3.0510    2.7420 S.3     1  UNL1        0.0226
     12 C          -1.5350   -3.5590    3.9930 C.3     1  UNL1        0.1055
     13 O          -2.9820   -4.3250    1.7040 O.co2   1  UNL1       -0.6111
     14 N          -0.9170   -0.9820    2.3930 N.ar    1  UNL1       -0.1831
     15 C          -0.2640   -0.3800    1.3370 C.ar    1  UNL1        0.1014
     16 C           0.6310    0.7470    1.5410 C.ar    1  UNL1        0.0028
     17 C           0.6360    1.8500    0.6740 C.ar    1  UNL1       -0.0498
     18 C           1.5040    2.9210    0.8980 C.ar    1  UNL1       -0.0258
     19 C           2.3590    2.8940    1.9940 C.ar    1  UNL1        0.1234
     20 F           3.1910    3.9220    2.2070 F       1  UNL1       -0.2055
     21 C           2.3580    1.8200    2.8750 C.ar    1  UNL1       -0.0258
     22 C           1.4900    0.7490    2.6510 C.ar    1  UNL1       -0.0498
     23 C           1.2570   -0.7500   -1.5210 C.ar    1  UNL1       -0.0343
     24 C           1.6450   -0.6050   -2.8390 C.ar    1  UNL1        0.0303
     25 N           0.7810   -0.5580   -3.8750 N.ar    1  UNL1       -0.2401
     26 H          -4.1670   -0.0650   -6.2260 H       1  UNL1        0.0323
     27 H          -2.5200   -0.0830   -6.8730 H       1  UNL1        0.0323
     28 H          -3.3850   -1.6230   -6.6240 H       1  UNL1        0.0323
     29 H          -0.7980   -0.4960   -5.5770 H       1  UNL1        0.1562
     30 H          -2.0770   -0.8670   -2.1000 H       1  UNL1        0.0658
     31 H          -1.9280   -2.6520   -0.1090 H       1  UNL1        0.1716
     32 H          -1.2940   -2.7110    4.6380 H       1  UNL1        0.0809
     33 H          -0.6290   -3.9380    3.5130 H       1  UNL1        0.0809
     34 H          -1.9800   -4.3530    4.5980 H       1  UNL1        0.0809
     35 H          -0.0440    1.8930   -0.1740 H       1  UNL1        0.0625
     36 H           1.5130    3.7770    0.2300 H       1  UNL1        0.0646
     37 H           3.0250    1.8240    3.7310 H       1  UNL1        0.0646
     38 H           1.4820   -0.0880    3.3470 H       1  UNL1        0.0625
     39 H           2.0060   -0.7890   -0.7370 H       1  UNL1        0.0639
     40 H           2.6950   -0.5220   -3.1060 H       1  UNL1        0.0830
@<TRIPOS>UNITY_ATOM_ATTR
11 1
charge 1
13 1
charge -1
@<TRIPOS>BOND
     1     1     2    1
     2     1    26    1
     3     1    27    1
     4     1    28    1
     5     2     3    2
     6     2     4   am
     7     4     5    1
     8     4    29    1
     9     5     6   ar
    10     5    25   ar
    11     6     7   ar
    12     6    30    1
    13     7     8    1
    14     7    23   ar
    15     8     9   ar
    16     8    15   ar
    17     9    10   ar
    18     9    31    1
    19    10    11    1
    20    10    14   ar
    21    11    12    1
    22    11    13    1
    23    12    32    1
    24    12    33    1
    25    12    34    1
    26    14    15   ar
    27    15    16    1
    28    16    17   ar
    29    16    22   ar
    30    17    18   ar
    31    17    35    1
    32    18    19   ar
    33    18    36    1
    34    19    20    1
    35    19    21   ar
    36    21    22   ar
    37    21    37    1
    38    22    38    1
    39    23    24   ar
    40    23    39    1
    41    24    25   ar
    42    24    40    1
@<TRIPOS>MOLECULE
AD3CC01165670-I00-C00
 50 53 0 0 0
SMALL
GASTEIGER

@<TRIPOS>ATOM
      1 C          -5.7600   -2.8610   -0.3430 C.3     1  UNL1        0.1055
      2 S          -4.6960   -2.5220   -1.7640 S.3     1  UNL1        0.0226
      3 O          -3.4990   -3.6740   -1.8080 O.co2   1  UNL1       -0.6111
      4 C          -3.9060   -1.0540   -1.0840 C.ar    1  UNL1        0.3242
      5 N          -4.5310    0.0220   -0.6670 N.ar    1  UNL1       -0.1831
      6 C          -3.5350    0.8710   -0.2310 C.ar    1  UNL1        0.1014
      7 C          -3.8430    2.1750    0.3330 C.ar    1  UNL1        0.0028
      8 C          -4.8630    2.9470   -0.2440 C.ar    1  UNL1       -0.0498
      9 C          -5.1840    4.2020    0.2790 C.ar    1  UNL1       -0.0258
     10 C          -4.4920    4.6790    1.3850 C.ar    1  UNL1        0.1234
     11 F          -4.7980    5.8820    1.8870 F       1  UNL1       -0.2055
     12 C          -3.4900    3.9230    1.9820 C.ar    1  UNL1       -0.0258
     13 C          -3.1680    2.6680    1.4600 C.ar    1  UNL1       -0.0498
     14 C          -2.2770    0.3100   -0.4240 C.ar    1  UNL1        0.0778
     15 C          -0.9120    0.7900   -0.2300 C.ar    1  UNL1        0.0052
     16 C          -0.5300    2.0460   -0.6960 C.ar    1  UNL1       -0.0343
     17 C           0.7750    2.4520   -0.4900 C.ar    1  UNL1        0.0303
     18 N           1.7050    1.6980    0.1330 N.ar    1  UNL1       -0.2401
     19 C           1.3290    0.4790    0.5730 C.ar    1  UNL1        0.1255
     20 N           2.3620   -0.2200    1.1960 N.am    1  UNL1       -0.2701
     21 C           2.3460   -1.4960    1.7080 C.2     1  UNL1        0.2226
     22 O           1.3850   -2.2610    1.7110 O.2     1  UNL1       -0.2751
     23 C           3.6720   -1.9070    2.3300 C.3     1  UNL1        0.0495
     24 C           4.7920   -2.0220    1.3220 C.ar    1  UNL1       -0.0384
     25 C           4.7160   -2.9680    0.2870 C.ar    1  UNL1       -0.0554
     26 C           5.7460   -3.0750   -0.6480 C.ar    1  UNL1       -0.0262
     27 C           6.8530   -2.2420   -0.5460 C.ar    1  UNL1        0.1234
     28 F           7.8430   -2.3460   -1.4420 F       1  UNL1       -0.2055
     29 C           6.9500   -1.3040    0.4750 C.ar    1  UNL1       -0.0262
     30 C           5.9210   -1.1940    1.4120 C.ar    1  UNL1       -0.0554
     31 C           0.0390   -0.0070    0.4150 C.ar    1  UNL1       -0.0123
     32 N          -2.5540   -0.9350   -0.9450 N.ar    1  UNL1       -0.2969
     33 H          -6.5010   -2.0650   -0.2400 H       1  UNL1        0.0809
     34 H          -6.2750   -3.8100   -0.5150 H       1  UNL1        0.0809
     35 H          -5.1600   -2.9370    0.5670 H       1  UNL1        0.0809
     36 H          -5.4110    2.5690   -1.1050 H       1  UNL1        0.0625
     37 H          -5.9700    4.8030   -0.1660 H       1  UNL1        0.0646
     38 H          -2.9710    4.3110    2.8530 H       1  UNL1        0.0646
     39 H          -2.3980    2.0760    1.9500 H       1  UNL1        0.0625
     40 H          -1.2260    2.6990   -1.2130 H       1  UNL1        0.0639
     41 H           1.1180    3.4230   -0.8340 H       1  UNL1        0.0830
     42 H           3.2310    0.2990    1.1890 H       1  UNL1        0.1562
     43 H           3.5430   -2.8730    2.8330 H       1  UNL1        0.0407
     44 H           3.9210   -1.1810    3.1130 H       1  UNL1        0.0407
     45 H           3.8520   -3.6270    0.2020 H       1  UNL1        0.0621
     46 H           5.6930   -3.8020   -1.4520 H       1  UNL1        0.0646
     47 H           7.8280   -0.6680    0.5360 H       1  UNL1        0.0646
     48 H           6.0130   -0.4610    2.2100 H       1  UNL1        0.0621
     49 H          -0.2460   -0.9810    0.7940 H       1  UNL1        0.0658
     50 H          -1.8890   -1.6500   -1.2120 H       1  UNL1        0.1716
@<TRIPOS>UNITY_ATOM_ATTR
2 1
charge 1
3 1
charge -1
@<TRIPOS>BOND
     1     1     2    1
     2     1    33    1
     3     1    34    1
     4     1    35    1
     5     2     3    1
     6     2     4    1
     7     4     5   ar
     8     4    32   ar
     9     5     6   ar
    10     6     7    1
    11     6    14   ar
    12     7     8   ar
    13     7    13   ar
    14     8     9   ar
    15     8    36    1
    16     9    10   ar
    17     9    37    1
    18    10    11    1
    19    10    12   ar
    20    12    13   ar
    21    12    38    1
    22    13    39    1
    23    14    15    1
    24    14    32   ar
    25    15    16   ar
    26    15    31   ar
    27    16    17   ar
    28    16    40    1
    29    17    18   ar
    30    17    41    1
    31    18    19   ar
    32    19    20    1
    33    19    31   ar
    34    20    21   am
    35    20    42    1
    36    21    22    2
    37    21    23    1
    38    23    24    1
    39    23    43    1
    40    23    44    1
    41    24    25   ar
    42    24    30   ar
    43    25    26   ar
    44    25    45    1
    45    26    27   ar
    46    26    46    1
    47    27    28    1
    48    27    29   ar
    49    29    30   ar
    50    29    47    1
    51    30    48    1
    52    31    49    1
    53    32    50    1
@<TRIPOS>MOLECULE
AD3CC01165720-I00-C00
 51 54 0 0 0
SMALL
GASTEIGER

@<TRIPOS>ATOM
      1 C           3.9280   -1.0980   -5.8240 C.3     1  UNL1        0.1055
      2 S           2.2270   -1.6490   -6.0820 S.3     1  UNL1        0.0226
      3 O           2.2040   -3.3110   -6.0530 O.co2   1  UNL1       -0.6111
      4 C           1.5980   -1.1500   -4.4710 C.ar    1  UNL1        0.3242
      5 N           1.7250    0.0420   -3.9370 N.ar    1  UNL1       -0.1831
      6 C           1.1090   -0.0480   -2.7060 C.ar    1  UNL1        0.1014
      7 C           1.0500    1.0840   -1.7960 C.ar    1  UNL1        0.0028
      8 C           0.7890    2.3630   -2.3090 C.ar    1  UNL1       -0.0498
      9 C           0.7160    3.4670   -1.4570 C.ar    1  UNL1       -0.0258
     10 C           0.9150    3.2930   -0.0930 C.ar    1  UNL1        0.1234
     11 F           0.8400    4.3500    0.7260 F       1  UNL1       -0.2055
     12 C           1.1930    2.0370    0.4340 C.ar    1  UNL1       -0.0258
     13 C           1.2660    0.9330   -0.4180 C.ar    1  UNL1       -0.0498
     14 C           0.5720   -1.3150   -2.5050 C.ar    1  UNL1        0.0778
     15 C          -0.2310   -1.9120   -1.4430 C.ar    1  UNL1        0.0052
     16 C           0.0960   -3.1560   -0.9110 C.ar    1  UNL1       -0.0343
     17 C          -0.6970   -3.6560    0.1050 C.ar    1  UNL1        0.0303
     18 N          -1.7640   -3.0060    0.6190 N.ar    1  UNL1       -0.2405
     19 C          -2.0700   -1.8010    0.1060 C.ar    1  UNL1        0.1195
     20 N          -3.1760   -1.1780    0.6720 N.pl3   1  UNL1       -0.3262
     21 C          -3.0120    0.2020    1.1390 C.3     1  UNL1        0.0220
     22 C          -4.4040    0.7540    1.4870 C.3     1  UNL1       -0.0345
     23 C          -4.3260    2.1660    2.0600 C.3     1  UNL1       -0.0514
     24 C          -3.3970    2.2310    3.2670 C.3     1  UNL1       -0.0529
     25 C          -2.0130    1.6810    2.9390 C.3     1  UNL1       -0.0514
     26 C          -2.0880    0.2680    2.3650 C.3     1  UNL1       -0.0345
     27 C          -1.3430   -1.2380   -0.9340 C.ar    1  UNL1       -0.0127
     28 N           0.9170   -2.0000   -3.6480 N.ar    1  UNL1       -0.2969
     29 H           3.9560   -0.0080   -5.7510 H       1  UNL1        0.0809
     30 H           4.5290   -1.4140   -6.6800 H       1  UNL1        0.0809
     31 H           4.3350   -1.5460   -4.9140 H       1  UNL1        0.0809
     32 H           0.6390    2.5010   -3.3790 H       1  UNL1        0.0625
     33 H           0.5090    4.4580   -1.8490 H       1  UNL1        0.0646
     34 H           1.3560    1.9260    1.5020 H       1  UNL1        0.0646
     35 H           1.5000   -0.0420    0.0050 H       1  UNL1        0.0625
     36 H           0.9500   -3.7260   -1.2590 H       1  UNL1        0.0639
     37 H          -0.4880   -4.6230    0.5550 H       1  UNL1        0.0830
     38 H          -3.4830   -1.8090    1.4110 H       1  UNL1        0.1477
     39 H          -2.6000    0.8330    0.3420 H       1  UNL1        0.0498
     40 H          -5.0380    0.7580    0.5910 H       1  UNL1        0.0283
     41 H          -4.8990    0.0950    2.2130 H       1  UNL1        0.0283
     42 H          -3.9670    2.8550    1.2850 H       1  UNL1        0.0266
     43 H          -5.3280    2.5040    2.3470 H       1  UNL1        0.0266
     44 H          -3.3100    3.2670    3.6120 H       1  UNL1        0.0265
     45 H          -3.8320    1.6550    4.0930 H       1  UNL1        0.0265
     46 H          -1.3930    1.6790    3.8430 H       1  UNL1        0.0266
     47 H          -1.5210    2.3430    2.2160 H       1  UNL1        0.0266
     48 H          -1.0760   -0.0630    2.1000 H       1  UNL1        0.0283
     49 H          -2.4450   -0.4210    3.1420 H       1  UNL1        0.0283
     50 H          -1.6480   -0.2860   -1.3540 H       1  UNL1        0.0658
     51 H           0.6970   -2.9600   -3.8780 H       1  UNL1        0.1716
@<TRIPOS>UNITY_ATOM_ATTR
2 1
charge 1
3 1
charge -1
@<TRIPOS>BOND
     1     1     2    1
     2     1    29    1
     3     1    30    1
     4     1    31    1
     5     2     3    1
     6     2     4    1
     7     4     5   ar
     8     4    28   ar
     9     5     6   ar
    10     6     7    1
    11     6    14   ar
    12     7     8   ar
    13     7    13   ar
    14     8     9   ar
    15     8    32    1
    16     9    10   ar
    17     9    33    1
    18    10    11    1
    19    10    12   ar
    20    12    13   ar
    21    12    34    1
    22    13    35    1
    23    14    15    1
    24    14    28   ar
    25    15    16   ar
    26    15    27   ar
    27    16    17   ar
    28    16    36    1
    29    17    18   ar
    30    17    37    1
    31    18    19   ar
    32    19    20    1
    33    19    27   ar
    34    20    21    1
    35    20    38    1
    36    21    22    1
    37    21    26    1
    38    21    39    1
    39    22    23    1
    40    22    40    1
    41    22    41    1
    42    23    24    1
    43    23    42    1
    44    23    43    1
    45    24    25    1
    46    24    44    1
    47    24    45    1
    48    25    26    1
    49    25    46    1
    50    25    47    1
    51    26    48    1
    52    26    49    1
    53    27    50    1
    54    28    51    1
@<TRIPOS>MOLECULE
AD3CC01165723-I00-C00
 57 60 0 0 0
SMALL
GASTEIGER

@<TRIPOS>ATOM
      1 C          -3.6650   -3.7610   -0.7340 C.3     1  UNL1       -0.0166
      2 C          -3.6690   -3.7890   -2.2590 C.3     1  UNL1        0.1205
      3 C          -4.7020   -4.7890   -2.7720 C.3     1  UNL1       -0.0166
      4 S          -2.0300   -4.2340   -2.9440 S.3     1  UNL1        0.0282
      5 O          -1.4000   -5.5000   -2.0690 O.co2   1  UNL1       -0.6107
      6 C          -1.1210   -2.7820   -2.3990 C.ar    1  UNL1        0.3247
      7 N          -1.4600   -1.5360   -2.6320 N.ar    1  UNL1       -0.1830
      8 C          -0.4780   -0.7760   -2.0300 C.ar    1  UNL1        0.1014
      9 C          -0.5010    0.6770   -2.0750 C.ar    1  UNL1        0.0028
     10 C           0.6680    1.4270   -2.2760 C.ar    1  UNL1       -0.0498
     11 C           0.6170    2.8230   -2.3010 C.ar    1  UNL1       -0.0258
     12 C          -0.6030    3.4670   -2.1380 C.ar    1  UNL1        0.1234
     13 F          -0.6500    4.8050   -2.1590 F       1  UNL1       -0.2055
     14 C          -1.7750    2.7430   -1.9580 C.ar    1  UNL1       -0.0258
     15 C          -1.7250    1.3480   -1.9310 C.ar    1  UNL1       -0.0498
     16 C           0.4560   -1.5830   -1.3880 C.ar    1  UNL1        0.0778
     17 C           1.6150   -1.3060   -0.5450 C.ar    1  UNL1        0.0052
     18 C           2.8300   -1.9500   -0.7630 C.ar    1  UNL1       -0.0343
     19 C           3.8920   -1.6270    0.0600 C.ar    1  UNL1        0.0303
     20 N           3.8250   -0.7180    1.0560 N.ar    1  UNL1       -0.2405
     21 C           2.6510   -0.0940    1.2580 C.ar    1  UNL1        0.1195
     22 N           2.6440    0.8350    2.2910 N.pl3   1  UNL1       -0.3262
     23 C           2.1250    2.1780    2.0040 C.3     1  UNL1        0.0220
     24 C           3.0240    2.9490    1.0230 C.3     1  UNL1       -0.0345
     25 C           4.3620    3.3640    1.6320 C.3     1  UNL1       -0.0514
     26 C           4.1730    4.1380    2.9320 C.3     1  UNL1       -0.0529
     27 C           3.3220    3.3640    3.9320 C.3     1  UNL1       -0.0514
     28 C           1.9810    2.9450    3.3290 C.3     1  UNL1       -0.0345
     29 C           1.5260   -0.3790    0.4960 C.ar    1  UNL1       -0.0127
     30 N           0.0250   -2.8610   -1.6610 N.ar    1  UNL1       -0.2969
     31 H          -2.9610   -3.0210   -0.3420 H       1  UNL1        0.0278
     32 H          -3.3950   -4.7350   -0.3110 H       1  UNL1        0.0278
     33 H          -4.6580   -3.4980   -0.3530 H       1  UNL1        0.0278
     34 H          -3.9270   -2.7970   -2.6470 H       1  UNL1        0.0877
     35 H          -4.4800   -5.8080   -2.4350 H       1  UNL1        0.0278
     36 H          -5.7050   -4.5270   -2.4180 H       1  UNL1        0.0278
     37 H          -4.7290   -4.8010   -3.8680 H       1  UNL1        0.0278
     38 H           1.6270    0.9340   -2.4220 H       1  UNL1        0.0625
     39 H           1.5190    3.4080   -2.4520 H       1  UNL1        0.0646
     40 H          -2.7190    3.2660   -1.8420 H       1  UNL1        0.0646
     41 H          -2.6440    0.7810   -1.7950 H       1  UNL1        0.0625
     42 H           2.9630   -2.6740   -1.5590 H       1  UNL1        0.0639
     43 H           4.8620   -2.1010   -0.0650 H       1  UNL1        0.0830
     44 H           3.6000    0.8410    2.6420 H       1  UNL1        0.1477
     45 H           1.1200    2.1000    1.5730 H       1  UNL1        0.0498
     46 H           3.2060    2.3650    0.1130 H       1  UNL1        0.0283
     47 H           2.4920    3.8550    0.7040 H       1  UNL1        0.0283
     48 H           4.9790    2.4770    1.8180 H       1  UNL1        0.0266
     49 H           4.9120    3.9840    0.9150 H       1  UNL1        0.0266
     50 H           5.1500    4.3620    3.3740 H       1  UNL1        0.0265
     51 H           3.6940    5.1010    2.7150 H       1  UNL1        0.0265
     52 H           3.1450    3.9830    4.8190 H       1  UNL1        0.0266
     53 H           3.8710    2.4780    4.2720 H       1  UNL1        0.0266
     54 H           1.4280    2.3410    4.0600 H       1  UNL1        0.0283
     55 H           1.3820    3.8480    3.1500 H       1  UNL1        0.0283
     56 H           0.5840    0.1090    0.7180 H       1  UNL1        0.0658
     57 H           0.4270   -3.7280   -1.3280 H       1  UNL1        0.1716
@<TRIPOS>UNITY_ATOM_ATTR
4 1
charge 1
5 1
charge -1
@<TRIPOS>BOND
     1     1     2    1
     2     1    31    1
     3     1    32    1
     4     1    33    1
     5     2     3    1
     6     2     4    1
     7     2    34    1
     8     3    35    1
     9     3    36    1
    10     3    37    1
    11     4     5    1
    12     4     6    1
    13     6     7   ar
    14     6    30   ar
    15     7     8   ar
    16     8     9    1
    17     8    16   ar
    18     9    10   ar
    19     9    15   ar
    20    10    11   ar
    21    10    38    1
    22    11    12   ar
    23    11    39    1
    24    12    13    1
    25    12    14   ar
    26    14    15   ar
    27    14    40    1
    28    15    41    1
    29    16    17    1
    30    16    30   ar
    31    17    18   ar
    32    17    29   ar
    33    18    19   ar
    34    18    42    1
    35    19    20   ar
    36    19    43    1
    37    20    21   ar
    38    21    22    1
    39    21    29   ar
    40    22    23    1
    41    22    44    1
    42    23    24    1
    43    23    28    1
    44    23    45    1
    45    24    25    1
    46    24    46    1
    47    24    47    1
    48    25    26    1
    49    25    48    1
    50    25    49    1
    51    26    27    1
    52    26    50    1
    53    26    51    1
    54    27    28    1
    55    27    52    1
    56    27    53    1
    57    28    54    1
    58    28    55    1
    59    29    56    1
    60    30    57    1
@<TRIPOS>MOLECULE
AD3CC01165730-I00-C00
 50 52 0 0 0
SMALL
GASTEIGER

@<TRIPOS>ATOM
      1 C          -2.2670   -4.3510    1.6760 C.3     1  UNL1       -0.0610
      2 C          -1.6260   -3.2380    2.5120 C.3     1  UNL1       -0.0285
      3 C          -0.2250   -3.6930    2.9490 C.3     1  UNL1       -0.0610
      4 C          -1.5580   -1.8840    1.7500 C.3     1  UNL1        0.0214
      5 C          -2.9300   -1.4370    1.2280 C.3     1  UNL1       -0.0464
      6 N          -1.0300   -0.8670    2.6720 N.pl3   1  UNL1       -0.3262
      7 C          -0.5660    0.3230    2.1220 C.ar    1  UNL1        0.1195
      8 C           0.3810    0.3570    1.1080 C.ar    1  UNL1       -0.0127
      9 C           0.7830    1.5850    0.5780 C.ar    1  UNL1        0.0052
     10 C           1.7370    1.6370   -0.5250 C.ar    1  UNL1        0.0778
     11 N           2.8360    2.4660   -0.5190 N.ar    1  UNL1       -0.2969
     12 C           3.5630    2.2270   -1.6500 C.ar    1  UNL1        0.3242
     13 S           5.0900    3.1020   -2.0290 S.3     1  UNL1        0.0226
     14 C           4.6230    3.6310   -3.6920 C.3     1  UNL1        0.1055
     15 O           5.0780    4.4320   -1.0320 O.co2   1  UNL1       -0.6111
     16 N           3.0080    1.3010   -2.3950 N.ar    1  UNL1       -0.1831
     17 C           1.8620    0.9350   -1.7200 C.ar    1  UNL1        0.1014
     18 C           0.9570   -0.0770   -2.2420 C.ar    1  UNL1        0.0028
     19 C          -0.4360    0.0810   -2.1870 C.ar    1  UNL1       -0.0498
     20 C          -1.2800   -0.9160   -2.6810 C.ar    1  UNL1       -0.0258
     21 C          -0.7310   -2.0630   -3.2420 C.ar    1  UNL1        0.1234
     22 F          -1.5420   -3.0190   -3.7130 F       1  UNL1       -0.2055
     23 C           0.6460   -2.2300   -3.3260 C.ar    1  UNL1       -0.0258
     24 C           1.4900   -1.2340   -2.8300 C.ar    1  UNL1       -0.0498
     25 C           0.2470    2.7500    1.1190 C.ar    1  UNL1       -0.0343
     26 C          -0.6670    2.6280    2.1490 C.ar    1  UNL1        0.0303
     27 N          -1.0800    1.4460    2.6540 N.ar    1  UNL1       -0.2405
     28 H          -3.3250   -4.1490    1.4860 H       1  UNL1        0.0233
     29 H          -2.2160   -5.3110    2.2010 H       1  UNL1        0.0233
     30 H          -1.7590   -4.4660    0.7130 H       1  UNL1        0.0233
     31 H          -2.2300   -3.1080    3.4190 H       1  UNL1        0.0313
     32 H          -0.2760   -4.6500    3.4790 H       1  UNL1        0.0233
     33 H           0.2370   -2.9710    3.6290 H       1  UNL1        0.0233
     34 H           0.4360   -3.8200    2.0850 H       1  UNL1        0.0233
     35 H          -0.8890   -2.0190    0.8910 H       1  UNL1        0.0498
     36 H          -3.3100   -2.1240    0.4670 H       1  UNL1        0.0248
     37 H          -2.8770   -0.4470    0.7620 H       1  UNL1        0.0248
     38 H          -3.6630   -1.3810    2.0400 H       1  UNL1        0.0248
     39 H          -1.7120   -0.5860    3.3760 H       1  UNL1        0.1477
     40 H           0.8110   -0.5680    0.7400 H       1  UNL1        0.0658
     41 H           3.1000    3.1300    0.1970 H       1  UNL1        0.1716
     42 H           4.5380    2.7590   -4.3450 H       1  UNL1        0.0809
     43 H           5.4020    4.2930   -4.0770 H       1  UNL1        0.0809
     44 H           3.6740    4.1730   -3.6620 H       1  UNL1        0.0809
     45 H          -0.8770    0.9810   -1.7650 H       1  UNL1        0.0625
     46 H          -2.3590   -0.8020   -2.6360 H       1  UNL1        0.0646
     47 H           1.0540   -3.1290   -3.7760 H       1  UNL1        0.0646
     48 H           2.5690   -1.3630   -2.8990 H       1  UNL1        0.0625
     49 H           0.5140    3.7340    0.7480 H       1  UNL1        0.0639
     50 H          -1.1140    3.5050    2.6080 H       1  UNL1        0.0830
@<TRIPOS>UNITY_ATOM_ATTR
13 1
charge 1
15 1
charge -1
@<TRIPOS>BOND
     1     1     2    1
     2     1    28    1
     3     1    29    1
     4     1    30    1
     5     2     3    1
     6     2     4    1
     7     2    31    1
     8     3    32    1
     9     3    33    1
    10     3    34    1
    11     4     5    1
    12     4     6    1
    13     4    35    1
    14     5    36    1
    15     5    37    1
    16     5    38    1
    17     6     7    1
    18     6    39    1
    19     7     8   ar
    20     7    27   ar
    21     8     9   ar
    22     8    40    1
    23     9    10    1
    24     9    25   ar
    25    10    11   ar
    26    10    17   ar
    27    11    12   ar
    28    11    41    1
    29    12    13    1
    30    12    16   ar
    31    13    14    1
    32    13    15    1
    33    14    42    1
    34    14    43    1
    35    14    44    1
    36    16    17   ar
    37    17    18    1
    38    18    19   ar
    39    18    24   ar
    40    19    20   ar
    41    19    45    1
    42    20    21   ar
    43    20    46    1
    44    21    22    1
    45    21    23   ar
    46    23    24   ar
    47    23    47    1
    48    24    48    1
    49    25    26   ar
    50    25    49    1
    51    26    27   ar
    52    26    50    1
@<TRIPOS>MOLECULE
AD3CC01165736-I00-C01
 51 54 0 0 0
SMALL
GASTEIGER

@<TRIPOS>ATOM
      1 C           1.2950   -4.1470    0.9370 C.3     1  UNL1       -0.0425
      2 C           0.9340   -2.8150    0.2700 C.3     1  UNL1        0.0444
      3 N          -0.4140   -2.9340   -0.2780 N.pl3   1  UNL1       -0.3225
      4 C          -1.0470   -1.8380   -0.8340 C.ar    1  UNL1        0.1197
      5 C          -1.0520   -0.5770   -0.2520 C.ar    1  UNL1       -0.0127
      6 C          -1.7670    0.4580   -0.8610 C.ar    1  UNL1        0.0052
      7 C          -1.8010    1.7850   -0.2600 C.ar    1  UNL1        0.0778
      8 N          -2.9810    2.4000    0.0950 N.ar    1  UNL1       -0.2969
      9 C          -2.6820    3.5830    0.7070 C.ar    1  UNL1        0.3242
     10 S          -3.9430    4.6970    1.3470 S.3     1  UNL1        0.0226
     11 C          -3.3040    4.7890    3.0340 C.3     1  UNL1        0.1055
     12 O          -5.3400    3.7950    1.3650 O.co2   1  UNL1       -0.6111
     13 N          -1.3860    3.7810    0.7690 N.ar    1  UNL1       -0.1831
     14 C          -0.8230    2.6830    0.1490 C.ar    1  UNL1        0.1014
     15 C           0.6170    2.5490   -0.0020 C.ar    1  UNL1        0.0028
     16 C           1.1900    2.0140   -1.1650 C.ar    1  UNL1       -0.0498
     17 C           2.5780    1.9140   -1.2880 C.ar    1  UNL1       -0.0258
     18 C           3.3930    2.3490   -0.2500 C.ar    1  UNL1        0.1234
     19 F           4.7230    2.2400   -0.3640 F       1  UNL1       -0.2055
     20 C           2.8470    2.8930    0.9060 C.ar    1  UNL1       -0.0258
     21 C           1.4600    2.9990    1.0260 C.ar    1  UNL1       -0.0498
     22 C          -2.4610    0.1950   -2.0380 C.ar    1  UNL1       -0.0343
     23 C          -2.4070   -1.0880   -2.5470 C.ar    1  UNL1        0.0303
     24 N          -1.7250   -2.0990   -1.9680 N.ar    1  UNL1       -0.2405
     25 C           1.9920   -2.4600   -0.7660 C.ar    1  UNL1       -0.0275
     26 C           3.0810   -1.6580   -0.3820 C.ar    1  UNL1       -0.0568
     27 C           4.1010   -1.3520   -1.2860 C.ar    1  UNL1       -0.0614
     28 C           4.0470   -1.8380   -2.5890 C.ar    1  UNL1       -0.0617
     29 C           2.9770   -2.6360   -2.9870 C.ar    1  UNL1       -0.0614
     30 C           1.9610   -2.9510   -2.0810 C.ar    1  UNL1       -0.0568
     31 H           1.3090   -4.9700    0.2130 H       1  UNL1        0.0251
     32 H           2.2820   -4.1000    1.4100 H       1  UNL1        0.0251
     33 H           0.5620   -4.4030    1.7110 H       1  UNL1        0.0251
     34 H           0.9340   -2.0520    1.0580 H       1  UNL1        0.0545
     35 H          -0.5270   -3.6950   -0.9400 H       1  UNL1        0.1480
     36 H          -0.5300   -0.4010    0.6810 H       1  UNL1        0.0658
     37 H          -3.9180    2.0330   -0.0100 H       1  UNL1        0.1716
     38 H          -2.3380    5.3000    3.0350 H       1  UNL1        0.0809
     39 H          -3.1990    3.7840    3.4520 H       1  UNL1        0.0809
     40 H          -4.0110    5.3580    3.6420 H       1  UNL1        0.0809
     41 H           0.5700    1.6800   -1.9930 H       1  UNL1        0.0625
     42 H           3.0230    1.4960   -2.1850 H       1  UNL1        0.0646
     43 H           3.5000    3.2360    1.7010 H       1  UNL1        0.0646
     44 H           1.0330    3.4360    1.9270 H       1  UNL1        0.0625
     45 H          -3.0240    0.9630   -2.5570 H       1  UNL1        0.0639
     46 H          -2.9280   -1.3490   -3.4640 H       1  UNL1        0.0830
     47 H           3.1460   -1.2650    0.6300 H       1  UNL1        0.0621
     48 H           4.9350   -0.7280   -0.9720 H       1  UNL1        0.0618
     49 H           4.8380   -1.5970   -3.2940 H       1  UNL1        0.0618
     50 H           2.9330   -3.0190   -4.0030 H       1  UNL1        0.0618
     51 H           1.1420   -3.5810   -2.4190 H       1  UNL1        0.0621
@<TRIPOS>UNITY_ATOM_ATTR
10 1
charge 1
12 1
charge -1
@<TRIPOS>BOND
     1     1     2    1
     2     1    31    1
     3     1    32    1
     4     1    33    1
     5     2     3    1
     6     2    25    1
     7     2    34    1
     8     3     4    1
     9     3    35    1
    10     4     5   ar
    11     4    24   ar
    12     5     6   ar
    13     5    36    1
    14     6     7    1
    15     6    22   ar
    16     7     8   ar
    17     7    14   ar
    18     8     9   ar
    19     8    37    1
    20     9    10    1
    21     9    13   ar
    22    10    11    1
    23    10    12    1
    24    11    38    1
    25    11    39    1
    26    11    40    1
    27    13    14   ar
    28    14    15    1
    29    15    16   ar
    30    15    21   ar
    31    16    17   ar
    32    16    41    1
    33    17    18   ar
    34    17    42    1
    35    18    19    1
    36    18    20   ar
    37    20    21   ar
    38    20    43    1
    39    21    44    1
    40    22    23   ar
    41    22    45    1
    42    23    24   ar
    43    23    46    1
    44    25    26   ar
    45    25    30   ar
    46    26    27   ar
    47    26    47    1
    48    27    28   ar
    49    27    48    1
    50    28    29   ar
    51    28    49    1
    52    29    30   ar
    53    29    50    1
    54    30    51    1
@<TRIPOS>MOLECULE
AD3CC01167394-I00-C00
 41 44 0 0 0
SMALL
GASTEIGER

@<TRIPOS>ATOM
      1 O          -2.2110   -0.9070   -0.1650 O.2     1  UNL1       -0.2751
      2 C          -2.6990   -0.5240    0.8900 C.2     1  UNL1        0.2214
      3 N          -2.0190   -0.3480    2.0700 N.am    1  UNL1       -0.2682
      4 C          -0.6790   -0.5400    2.3140 C.ar    1  UNL1        0.1574
      5 N          -0.2860   -0.3120    3.5770 N.ar    1  UNL1       -0.1561
      6 N           1.0340   -0.5640    3.5590 N.ar    1  UNL1       -0.2582
      7 C           1.5030   -0.9400    2.3400 C.ar    1  UNL1        0.1644
      8 N           2.7770   -1.2460    2.0520 N.ar    1  UNL1       -0.1753
      9 C           2.9310   -1.5560    0.7530 C.ar    1  UNL1        0.3254
     10 O           4.2260   -1.9230    0.4010 O.3     1  UNL1       -0.4207
     11 C           4.5530   -1.7750   -0.9240 C.ar    1  UNL1        0.1671
     12 C           4.9270   -2.9140   -1.6390 C.ar    1  UNL1       -0.0136
     13 C           5.2990   -2.7910   -2.9790 C.ar    1  UNL1       -0.0228
     14 C           5.3090   -1.5340   -3.5800 C.ar    1  UNL1        0.1264
     15 F           5.6720   -1.4240   -4.8640 F       1  UNL1       -0.2054
     16 C           4.9610   -0.3920   -2.8690 C.ar    1  UNL1        0.0125
     17 C           4.5900   -0.5190   -1.5360 C.ar    1  UNL1        0.1682
     18 F           4.2860    0.5850   -0.8390 F       1  UNL1       -0.2015
     19 N           1.9600   -1.6170   -0.1840 N.ar    1  UNL1       -0.2022
     20 C           0.6890   -1.2980    0.1730 C.ar    1  UNL1        0.0470
     21 C           0.4120   -0.9370    1.4880 C.ar    1  UNL1        0.0787
     22 C          -4.1860   -0.1870    1.0300 C.3     1  UNL1        0.0359
     23 C          -4.3900    1.3180    1.2810 C.3     1  UNL1       -0.0419
     24 C          -5.3670    1.7960    0.2130 C.3     1  UNL1       -0.0523
     25 C          -5.1570    0.8300   -0.9380 C.3     1  UNL1       -0.0523
     26 C          -4.9990   -0.5070   -0.2310 C.3     1  UNL1       -0.0419
     27 H          -2.5180   -0.0500    2.8980 H       1  UNL1        0.1563
     28 H           1.5720   -0.4610    4.4110 H       1  UNL1        0.1906
     29 H           4.9170   -3.8900   -1.1610 H       1  UNL1        0.0656
     30 H           5.5820   -3.6650   -3.5580 H       1  UNL1        0.0647
     31 H           4.9840    0.5810   -3.3430 H       1  UNL1        0.0676
     32 H          -0.0440   -1.3510   -0.6220 H       1  UNL1        0.0839
     33 H          -4.5760   -0.7800    1.8670 H       1  UNL1        0.0394
     34 H          -3.4490    1.8750    1.1940 H       1  UNL1        0.0272
     35 H          -4.7880    1.5050    2.2840 H       1  UNL1        0.0272
     36 H          -6.3960    1.7190    0.5870 H       1  UNL1        0.0265
     37 H          -5.1900    2.8350   -0.0760 H       1  UNL1        0.0265
     38 H          -4.2420    1.0820   -1.4870 H       1  UNL1        0.0265
     39 H          -5.9940    0.8320   -1.6410 H       1  UNL1        0.0265
     40 H          -5.9900   -0.8790    0.0620 H       1  UNL1        0.0272
     41 H          -4.5480   -1.2620   -0.8820 H       1  UNL1        0.0272
@<TRIPOS>BOND
     1     1     2    2
     2     2     3   am
     3     2    22    1
     4     3     4    1
     5     3    27    1
     6     4     5   ar
     7     4    21   ar
     8     5     6   ar
     9     6     7   ar
    10     6    28    1
    11     7     8   ar
    12     7    21   ar
    13     8     9   ar
    14     9    10    1
    15     9    19   ar
    16    10    11    1
    17    11    12   ar
    18    11    17   ar
    19    12    13   ar
    20    12    29    1
    21    13    14   ar
    22    13    30    1
    23    14    15    1
    24    14    16   ar
    25    16    17   ar
    26    16    31    1
    27    17    18    1
    28    19    20   ar
    29    20    21   ar
    30    20    32    1
    31    22    23    1
    32    22    26    1
    33    22    33    1
    34    23    24    1
    35    23    34    1
    36    23    35    1
    37    24    25    1
    38    24    36    1
    39    24    37    1
    40    25    26    1
    41    25    38    1
    42    25    39    1
    43    26    40    1
    44    26    41    1
@<TRIPOS>MOLECULE
AD3CC01167464-I00-C00
 46 49 0 0 0
SMALL
GASTEIGER

@<TRIPOS>ATOM
      1 C          -5.9970    3.0200    2.1300 C.3     1  UNL1        0.0124
      2 C          -5.1350    3.3670    0.9420 C.2     1  UNL1        0.2125
      3 O          -5.5950    4.0530    0.0280 O.2     1  UNL1       -0.2759
      4 N          -3.8330    2.8670    0.9290 N.am    1  UNL1       -0.3016
      5 C          -2.9580    3.3290   -0.1470 C.3     1  UNL1        0.0163
      6 C          -1.8700    2.3180   -0.4820 C.3     1  UNL1       -0.0186
      7 C          -1.1000    1.9160    0.7780 C.3     1  UNL1        0.0249
      8 N          -0.1040    0.9070    0.4270 N.pl3   1  UNL1       -0.3242
      9 C           0.9990    0.7160    1.1870 C.ar    1  UNL1        0.1515
     10 N           1.3750    1.4910    2.2100 N.ar    1  UNL1       -0.1565
     11 N           2.5160    0.9230    2.6470 N.ar    1  UNL1       -0.2582
     12 C           2.8760   -0.1920    1.9530 C.ar    1  UNL1        0.1644
     13 N           3.9520   -0.9630    2.1710 N.ar    1  UNL1       -0.1753
     14 C           4.0240   -1.9740    1.2830 C.ar    1  UNL1        0.3254
     15 O           5.0980   -2.8350    1.4860 O.3     1  UNL1       -0.4207
     16 C           5.5090   -3.5550    0.3930 C.ar    1  UNL1        0.1671
     17 C           5.4870   -4.9480    0.4800 C.ar    1  UNL1       -0.0136
     18 C           5.9340   -5.7110   -0.6000 C.ar    1  UNL1       -0.0228
     19 C           6.4120   -5.0750   -1.7440 C.ar    1  UNL1        0.1264
     20 F           6.8420   -5.8140   -2.7750 F       1  UNL1       -0.2054
     21 C           6.4610   -3.6890   -1.8300 C.ar    1  UNL1        0.0125
     22 C           6.0150   -2.9340   -0.7530 C.ar    1  UNL1        0.1682
     23 F           6.0910   -1.5970   -0.8230 F       1  UNL1       -0.2015
     24 N           3.1350   -2.2640    0.3010 N.ar    1  UNL1       -0.2022
     25 C           2.0700   -1.4430    0.1350 C.ar    1  UNL1        0.0470
     26 C           1.9070   -0.3560    0.9840 C.ar    1  UNL1        0.0783
     27 C          -2.0740    1.3610    1.8170 C.3     1  UNL1       -0.0186
     28 C          -3.1630    2.3770    2.1350 C.3     1  UNL1        0.0163
     29 H          -5.5980    3.4850    3.0350 H       1  UNL1        0.0323
     30 H          -7.0090    3.4040    1.9660 H       1  UNL1        0.0323
     31 H          -6.0630    1.9350    2.2460 H       1  UNL1        0.0323
     32 H          -2.5140    4.2780    0.1790 H       1  UNL1        0.0465
     33 H          -3.5420    3.5380   -1.0500 H       1  UNL1        0.0465
     34 H          -1.1870    2.7410   -1.2280 H       1  UNL1        0.0298
     35 H          -2.3270    1.4310   -0.9410 H       1  UNL1        0.0298
     36 H          -0.6090    2.8160    1.1730 H       1  UNL1        0.0499
     37 H          -0.4350    0.1710   -0.1870 H       1  UNL1        0.1478
     38 H           3.0090    1.3400    3.4260 H       1  UNL1        0.1906
     39 H           5.1150   -5.4350    1.3780 H       1  UNL1        0.0656
     40 H           5.9150   -6.7960   -0.5580 H       1  UNL1        0.0647
     41 H           6.8470   -3.2050   -2.7190 H       1  UNL1        0.0676
     42 H           1.3860   -1.6880   -0.6690 H       1  UNL1        0.0839
     43 H          -1.5470    1.0910    2.7400 H       1  UNL1        0.0298
     44 H          -2.5360    0.4380    1.4390 H       1  UNL1        0.0298
     45 H          -3.8800    1.9200    2.8210 H       1  UNL1        0.0465
     46 H          -2.7380    3.2500    2.6460 H       1  UNL1        0.0465
@<TRIPOS>BOND
     1     1     2    1
     2     1    29    1
     3     1    30    1
     4     1    31    1
     5     2     3    2
     6     2     4   am
     7     4     5    1
     8     4    28    1
     9     5     6    1
    10     5    32    1
    11     5    33    1
    12     6     7    1
    13     6    34    1
    14     6    35    1
    15     7     8    1
    16     7    27    1
    17     7    36    1
    18     8     9    1
    19     8    37    1
    20     9    10   ar
    21     9    26   ar
    22    10    11   ar
    23    11    12   ar
    24    11    38    1
    25    12    13   ar
    26    12    26   ar
    27    13    14   ar
    28    14    15    1
    29    14    24   ar
    30    15    16    1
    31    16    17   ar
    32    16    22   ar
    33    17    18   ar
    34    17    39    1
    35    18    19   ar
    36    18    40    1
    37    19    20    1
    38    19    21   ar
    39    21    22   ar
    40    21    41    1
    41    22    23    1
    42    24    25   ar
    43    25    26   ar
    44    25    42    1
    45    27    28    1
    46    27    43    1
    47    27    44    1
    48    28    45    1
    49    28    46    1
@<TRIPOS>MOLECULE
AD3CC01174491-I00-C00
 49 51 0 0 0
SMALL
GASTEIGER

@<TRIPOS>ATOM
      1 C          -2.7980   -1.3990   -3.1350 C.3     1  UNL1       -0.0377
      2 C          -2.4370   -0.0500   -2.5660 C.ar    1  UNL1       -0.0264
      3 C          -3.3950    0.9730   -2.7010 C.ar    1  UNL1       -0.0562
      4 C          -3.1150    2.2790   -2.3030 C.ar    1  UNL1       -0.0493
      5 C          -1.8670    2.5900   -1.7660 C.ar    1  UNL1        0.0387
      6 C          -1.5870    3.9990   -1.3790 C.2     1  UNL1        0.2442
      7 O          -2.5080    4.7500   -1.0790 O.2     1  UNL1       -0.2702
      8 N          -0.2650    4.3940   -1.4140 N.am    1  UNL1       -0.3092
      9 C           0.1030    5.7880   -1.2070 C.3     1  UNL1        0.0351
     10 C           0.0010    6.2080    0.2600 C.3     1  UNL1        0.0597
     11 O           0.8700    5.4030    1.0570 O.3     1  UNL1       -0.3935
     12 C          -0.9250    1.5720   -1.5760 C.ar    1  UNL1       -0.0253
     13 C          -1.1930    0.2430   -1.9590 C.ar    1  UNL1        0.0545
     14 N          -0.1980   -0.7610   -1.7080 N.ar    1  UNL1       -0.2662
     15 C          -0.5580   -1.9520   -1.1290 C.ar    1  UNL1        0.1071
     16 N           0.2410   -2.9270   -0.8570 N.ar    1  UNL1       -0.2017
     17 C           1.5690   -2.7640   -1.1550 C.ar    1  UNL1        0.2362
     18 O           2.4330   -3.8230   -0.8970 O.3     1  UNL1       -0.4706
     19 C           2.0690   -4.6530    0.2140 C.3     1  UNL1        0.1190
     20 C           2.3470   -3.9810    1.5360 C.ar    1  UNL1        0.0250
     21 C           3.5730   -3.3410    1.7800 C.ar    1  UNL1       -0.0499
     22 C           3.8160   -2.7330    3.0130 C.ar    1  UNL1       -0.0259
     23 C           2.8400   -2.7730    4.0030 C.ar    1  UNL1        0.1261
     24 F           3.0780   -2.1900    5.1850 F       1  UNL1       -0.2054
     25 C           1.6270   -3.4110    3.7890 C.ar    1  UNL1        0.0092
     26 C           1.3920   -4.0130    2.5580 C.ar    1  UNL1        0.1325
     27 F           0.2210   -4.6360    2.3620 F       1  UNL1       -0.2050
     28 C           2.0800   -1.6390   -1.6810 C.ar    1  UNL1        0.1439
     29 BR          3.8960   -1.4010   -2.0710 Br      1  UNL1       -0.0391
     30 C           1.1470   -0.5090   -1.9660 C.ar    1  UNL1        0.2761
     31 O           1.5810    0.5510   -2.4240 O.2     1  UNL1       -0.2659
     32 H          -3.4700   -1.2890   -3.9940 H       1  UNL1        0.0278
     33 H          -1.9150   -1.9280   -3.5060 H       1  UNL1        0.0278
     34 H          -3.3060   -2.0080   -2.3820 H       1  UNL1        0.0278
     35 H          -4.3670    0.7610   -3.1470 H       1  UNL1        0.0621
     36 H          -3.8660    3.0570   -2.4310 H       1  UNL1        0.0625
     37 H           0.4060    3.8100   -1.8990 H       1  UNL1        0.1491
     38 H          -0.5390    6.4190   -1.8300 H       1  UNL1        0.0485
     39 H           1.1380    5.8860   -1.5500 H       1  UNL1        0.0485
     40 H           0.3080    7.2520    0.3770 H       1  UNL1        0.0573
     41 H          -1.0150    6.1030    0.6500 H       1  UNL1        0.0573
     42 H           0.5830    4.4850    0.9020 H       1  UNL1        0.2095
     43 H           0.0130    1.8100   -1.0800 H       1  UNL1        0.0646
     44 H          -1.6190   -2.0470   -0.8560 H       1  UNL1        0.1034
     45 H           2.7000   -5.5480    0.1580 H       1  UNL1        0.0749
     46 H           1.0360   -5.0100    0.1220 H       1  UNL1        0.0749
     47 H           4.3400   -3.3110    1.0070 H       1  UNL1        0.0623
     48 H           4.7590   -2.2310    3.2070 H       1  UNL1        0.0646
     49 H           0.8760   -3.4420    4.5690 H       1  UNL1        0.0675
@<TRIPOS>BOND
     1     1     2    1
     2     1    32    1
     3     1    33    1
     4     1    34    1
     5     2     3   ar
     6     2    13   ar
     7     3     4   ar
     8     3    35    1
     9     4     5   ar
    10     4    36    1
    11     5     6    1
    12     5    12   ar
    13     6     7    2
    14     6     8   am
    15     8     9    1
    16     8    37    1
    17     9    10    1
    18     9    38    1
    19     9    39    1
    20    10    11    1
    21    10    40    1
    22    10    41    1
    23    11    42    1
    24    12    13   ar
    25    12    43    1
    26    13    14    1
    27    14    15   ar
    28    14    30   ar
    29    15    16   ar
    30    15    44    1
    31    16    17   ar
    32    17    18    1
    33    17    28   ar
    34    18    19    1
    35    19    20    1
    36    19    45    1
    37    19    46    1
    38    20    21   ar
    39    20    26   ar
    40    21    22   ar
    41    21    47    1
    42    22    23   ar
    43    22    48    1
    44    23    24    1
    45    23    25   ar
    46    25    26   ar
    47    25    49    1
    48    26    27    1
    49    28    29    1
    50    28    30   ar
    51    30    31    2
@<TRIPOS>MOLECULE
AD3CC01175828-I00-C01
 39 41 0 0 0
SMALL
GASTEIGER

@<TRIPOS>ATOM
      1 C           1.3410   -1.3790    1.8230 C.3     1  UNL1       -0.0237
      2 C           0.5920   -0.1440    1.3970 C.ar    1  UNL1        0.0277
      3 C          -0.6590   -0.2350    0.9210 C.ar    1  UNL1        0.0009
      4 C          -1.3830    0.9360    0.4980 C.ar    1  UNL1        0.1418
      5 O          -2.6660    0.6860    0.0510 O.3     1  UNL1       -0.4860
      6 C          -2.7320    0.5550   -1.3790 C.3     1  UNL1        0.1147
      7 C          -2.5460   -0.8820   -1.8030 C.ar    1  UNL1       -0.0104
      8 C          -1.4420   -1.2610   -2.5800 C.ar    1  UNL1       -0.0554
      9 C          -1.2680   -2.5930   -2.9580 C.ar    1  UNL1       -0.0614
     10 C          -2.1940   -3.5580   -2.5630 C.ar    1  UNL1       -0.0617
     11 C          -3.2940   -3.1920   -1.7890 C.ar    1  UNL1       -0.0614
     12 C          -3.4700   -1.8610   -1.4100 C.ar    1  UNL1       -0.0554
     13 C          -0.8670    2.1680    0.6400 C.ar    1  UNL1        0.1241
     14 BR         -1.7990    3.7310    0.2040 Br      1  UNL1       -0.0409
     15 C           0.5390    2.3050    1.1570 C.ar    1  UNL1        0.2736
     16 O           1.0640    3.4170    1.2500 O.2     1  UNL1       -0.2660
     17 N           1.2000    1.1100    1.5060 N.ar    1  UNL1       -0.2775
     18 C           2.5410    1.2650    1.9810 C.ar    1  UNL1        0.0863
     19 C           2.7940    1.5080    3.3420 C.ar    1  UNL1        0.0663
     20 CL          1.5180    1.5760    4.5090 Cl      1  UNL1       -0.0814
     21 C           4.1040    1.6880    3.7970 C.ar    1  UNL1       -0.0413
     22 C           5.1710    1.6360    2.9010 C.ar    1  UNL1       -0.0589
     23 C           4.9310    1.4050    1.5460 C.ar    1  UNL1       -0.0413
     24 C           3.6240    1.2250    1.0850 C.ar    1  UNL1        0.0663
     25 CL          3.3970    0.9480   -0.6080 Cl      1  UNL1       -0.0814
     26 H           0.7370   -2.2840    1.6960 H       1  UNL1        0.0292
     27 H           2.2480   -1.5140    1.2250 H       1  UNL1        0.0292
     28 H           1.6170   -1.3240    2.8810 H       1  UNL1        0.0292
     29 H          -1.1620   -1.1950    0.8390 H       1  UNL1        0.0672
     30 H          -2.0200    1.2210   -1.8840 H       1  UNL1        0.0748
     31 H          -3.7310    0.8820   -1.6890 H       1  UNL1        0.0748
     32 H          -0.7070   -0.5220   -2.8930 H       1  UNL1        0.0621
     33 H          -0.4100   -2.8790   -3.5600 H       1  UNL1        0.0618
     34 H          -2.0580   -4.5950   -2.8580 H       1  UNL1        0.0618
     35 H          -4.0150   -3.9440   -1.4800 H       1  UNL1        0.0618
     36 H          -4.3280   -1.5880   -0.8000 H       1  UNL1        0.0621
     37 H           4.2970    1.8760    4.8510 H       1  UNL1        0.0633
     38 H           6.1880    1.7830    3.2570 H       1  UNL1        0.0618
     39 H           5.7680    1.3750    0.8520 H       1  UNL1        0.0633
@<TRIPOS>BOND
     1     1     2    1
     2     1    26    1
     3     1    27    1
     4     1    28    1
     5     2     3   ar
     6     2    17   ar
     7     3     4   ar
     8     3    29    1
     9     4     5    1
    10     4    13   ar
    11     5     6    1
    12     6     7    1
    13     6    30    1
    14     6    31    1
    15     7     8   ar
    16     7    12   ar
    17     8     9   ar
    18     8    32    1
    19     9    10   ar
    20     9    33    1
    21    10    11   ar
    22    10    34    1
    23    11    12   ar
    24    11    35    1
    25    12    36    1
    26    13    14    1
    27    13    15   ar
    28    15    16    2
    29    15    17   ar
    30    17    18    1
    31    18    19   ar
    32    18    24   ar
    33    19    20    1
    34    19    21   ar
    35    21    22   ar
    36    21    37    1
    37    22    23   ar
    38    22    38    1
    39    23    24   ar
    40    23    39    1
    41    24    25    1
@<TRIPOS>MOLECULE
AD3CC01175899-I00-C00
 44 46 0 0 0
SMALL
GASTEIGER

@<TRIPOS>ATOM
      1 C          -2.0580    1.2120   -0.4350 C.3     1  UNL1       -0.0237
      2 C          -0.6860    0.6740   -0.1100 C.ar    1  UNL1        0.0276
      3 C          -0.5760   -0.5940    0.3170 C.ar    1  UNL1        0.0009
      4 C           0.7050   -1.2050    0.5310 C.ar    1  UNL1        0.1418
      5 O           0.6620   -2.4900    1.0350 O.3     1  UNL1       -0.4859
      6 C           0.5620   -3.4660   -0.0130 C.3     1  UNL1        0.1173
      7 C           0.6680   -4.8480    0.5780 C.ar    1  UNL1        0.0250
      8 C           1.5920   -5.1440    1.5940 C.ar    1  UNL1       -0.0499
      9 C           1.6920   -6.4420    2.0990 C.ar    1  UNL1       -0.0259
     10 C           0.8810   -7.4460    1.5820 C.ar    1  UNL1        0.1261
     11 F           0.9820   -8.6900    2.0690 F       1  UNL1       -0.2054
     12 C          -0.0270   -7.1820    0.5680 C.ar    1  UNL1        0.0092
     13 C          -0.1210   -5.8870    0.0710 C.ar    1  UNL1        0.1325
     14 F          -0.9900   -5.6400   -0.9190 F       1  UNL1       -0.2050
     15 C           1.8430   -0.5250    0.3340 C.ar    1  UNL1        0.1241
     16 BR          3.5360   -1.2560    0.6640 Br      1  UNL1       -0.0409
     17 C           1.7680    0.8900   -0.1740 C.ar    1  UNL1        0.2735
     18 O           2.8170    1.5060   -0.3780 O.2     1  UNL1       -0.2660
     19 N           0.4690    1.4410   -0.3540 N.ar    1  UNL1       -0.2803
     20 C           0.4090    2.8200   -0.7680 C.ar    1  UNL1        0.0500
     21 C          -0.3730    3.7490   -0.0690 C.ar    1  UNL1       -0.0377
     22 C          -0.4190    5.0870   -0.4680 C.ar    1  UNL1       -0.0595
     23 C           0.3220    5.5160   -1.5670 C.ar    1  UNL1       -0.0572
     24 C           1.1170    4.6100   -2.2790 C.ar    1  UNL1       -0.0318
     25 C           1.9610    5.0730   -3.4380 C.3     1  UNL1        0.0186
     26 N           3.3220    5.3730   -3.0120 N.3     1  UNL1       -0.3261
     27 C           1.1580    3.2680   -1.8660 C.ar    1  UNL1       -0.0333
     28 H          -2.0670    1.7280   -1.4000 H       1  UNL1        0.0292
     29 H          -2.7960    0.4050   -0.5150 H       1  UNL1        0.0292
     30 H          -2.4150    1.8870    0.3470 H       1  UNL1        0.0292
     31 H          -1.4580   -1.2040    0.4980 H       1  UNL1        0.0672
     32 H           1.3690   -3.3370   -0.7450 H       1  UNL1        0.0749
     33 H          -0.4030   -3.3440   -0.5210 H       1  UNL1        0.0749
     34 H           2.2340   -4.3630    1.9990 H       1  UNL1        0.0623
     35 H           2.4000   -6.6750    2.8890 H       1  UNL1        0.0646
     36 H          -0.6490   -7.9730    0.1670 H       1  UNL1        0.0675
     37 H          -0.9140    3.4570    0.8260 H       1  UNL1        0.0638
     38 H          -1.0190    5.8000    0.0930 H       1  UNL1        0.0618
     39 H           0.2880    6.5640   -1.8580 H       1  UNL1        0.0621
     40 H           1.9800    4.3030   -4.2180 H       1  UNL1        0.0471
     41 H           1.5180    5.9640   -3.8980 H       1  UNL1        0.0471
     42 H           3.2850    6.0570   -2.2570 H       1  UNL1        0.1185
     43 H           3.7210    4.5350   -2.5870 H       1  UNL1        0.1185
     44 H           1.7820    2.5680   -2.4180 H       1  UNL1        0.0641
@<TRIPOS>BOND
     1     1     2    1
     2     1    28    1
     3     1    29    1
     4     1    30    1
     5     2     3   ar
     6     2    19   ar
     7     3     4   ar
     8     3    31    1
     9     4     5    1
    10     4    15   ar
    11     5     6    1
    12     6     7    1
    13     6    32    1
    14     6    33    1
    15     7     8   ar
    16     7    13   ar
    17     8     9   ar
    18     8    34    1
    19     9    10   ar
    20     9    35    1
    21    10    11    1
    22    10    12   ar
    23    12    13   ar
    24    12    36    1
    25    13    14    1
    26    15    16    1
    27    15    17   ar
    28    17    18    2
    29    17    19   ar
    30    19    20    1
    31    20    21   ar
    32    20    27   ar
    33    21    22   ar
    34    21    37    1
    35    22    23   ar
    36    22    38    1
    37    23    24   ar
    38    23    39    1
    39    24    25    1
    40    24    27   ar
    41    25    26    1
    42    25    40    1
    43    25    41    1
    44    26    42    1
    45    26    43    1
    46    27    44    1
@<TRIPOS>MOLECULE
AD3CC01175904-I00-C00
 43 45 0 0 0
SMALL
GASTEIGER

@<TRIPOS>ATOM
      1 C           0.4100    2.7000    1.6730 C.3     1  UNL1       -0.0237
      2 C           0.3780    1.5550    0.6910 C.ar    1  UNL1        0.0276
      3 C           1.5200    0.8960    0.4350 C.ar    1  UNL1        0.0009
      4 C           1.5410   -0.2750   -0.3960 C.ar    1  UNL1        0.1418
      5 O           2.7940   -0.8060   -0.6260 O.3     1  UNL1       -0.4859
      6 C           3.1730   -1.7340    0.4020 C.3     1  UNL1        0.1173
      7 C           4.4740   -2.3960    0.0270 C.ar    1  UNL1        0.0250
      8 C           4.7440   -2.7930   -1.2920 C.ar    1  UNL1       -0.0499
      9 C           5.9440   -3.4360   -1.6030 C.ar    1  UNL1       -0.0259
     10 C           6.8680   -3.6950   -0.5950 C.ar    1  UNL1        0.1261
     11 F           8.0160   -4.3140   -0.8980 F       1  UNL1       -0.2054
     12 C           6.6160   -3.3270    0.7180 C.ar    1  UNL1        0.0092
     13 C           5.4190   -2.6870    1.0180 C.ar    1  UNL1        0.1325
     14 F           5.1730   -2.3460    2.2920 F       1  UNL1       -0.2050
     15 C           0.4220   -0.7440   -0.9660 C.ar    1  UNL1        0.1241
     16 BR          0.4080   -2.2270   -2.1110 Br      1  UNL1       -0.0409
     17 C          -0.8850   -0.0550   -0.6830 C.ar    1  UNL1        0.2735
     18 O          -1.9180   -0.5020   -1.1880 O.2     1  UNL1       -0.2660
     19 N          -0.8370    1.1070    0.1370 N.ar    1  UNL1       -0.2803
     20 C          -2.0830    1.8030    0.3370 C.ar    1  UNL1        0.0498
     21 C          -2.1830    3.1830    0.1120 C.ar    1  UNL1       -0.0370
     22 C          -3.3950    3.8530    0.3080 C.ar    1  UNL1       -0.0477
     23 C          -4.5340    3.1500    0.7150 C.ar    1  UNL1        0.0366
     24 C          -5.8000    3.9050    0.9060 C.2     1  UNL1        0.2415
     25 N          -6.9710    3.2050    0.8140 N.am    1  UNL1       -0.3253
     26 O          -5.8030    5.1140    1.1030 O.2     1  UNL1       -0.2704
     27 C          -4.4470    1.7730    0.9400 C.ar    1  UNL1       -0.0477
     28 C          -3.2310    1.1070    0.7440 C.ar    1  UNL1       -0.0370
     29 H           1.3360    2.6990    2.2600 H       1  UNL1        0.0292
     30 H          -0.4080    2.6290    2.3970 H       1  UNL1        0.0292
     31 H           0.3650    3.6640    1.1600 H       1  UNL1        0.0292
     32 H           2.4640    1.2210    0.8650 H       1  UNL1        0.0672
     33 H           2.4100   -2.5120    0.5260 H       1  UNL1        0.0749
     34 H           3.2850   -1.1890    1.3480 H       1  UNL1        0.0749
     35 H           4.0230   -2.5990   -2.0850 H       1  UNL1        0.0623
     36 H           6.1620   -3.7390   -2.6230 H       1  UNL1        0.0646
     37 H           7.3380   -3.5400    1.4970 H       1  UNL1        0.0675
     38 H          -1.3350    3.7490   -0.2630 H       1  UNL1        0.0638
     39 H          -3.4530    4.9250    0.1250 H       1  UNL1        0.0626
     40 H          -7.0160    2.3020    0.3650 H       1  UNL1        0.1453
     41 H          -7.8150    3.7640    0.8100 H       1  UNL1        0.1453
     42 H          -5.3030    1.2030    1.2870 H       1  UNL1        0.0626
     43 H          -3.1880    0.0360    0.9330 H       1  UNL1        0.0638
@<TRIPOS>BOND
     1     1     2    1
     2     1    29    1
     3     1    30    1
     4     1    31    1
     5     2     3   ar
     6     2    19   ar
     7     3     4   ar
     8     3    32    1
     9     4     5    1
    10     4    15   ar
    11     5     6    1
    12     6     7    1
    13     6    33    1
    14     6    34    1
    15     7     8   ar
    16     7    13   ar
    17     8     9   ar
    18     8    35    1
    19     9    10   ar
    20     9    36    1
    21    10    11    1
    22    10    12   ar
    23    12    13   ar
    24    12    37    1
    25    13    14    1
    26    15    16    1
    27    15    17   ar
    28    17    18    2
    29    17    19   ar
    30    19    20    1
    31    20    21   ar
    32    20    28   ar
    33    21    22   ar
    34    21    38    1
    35    22    23   ar
    36    22    39    1
    37    23    24    1
    38    23    27   ar
    39    24    25   am
    40    24    26    2
    41    25    40    1
    42    25    41    1
    43    27    28   ar
    44    27    42    1
    45    28    43    1
@<TRIPOS>MOLECULE
AD3CC01175905-I00-C00
 46 48 0 0 0
SMALL
GASTEIGER

@<TRIPOS>ATOM
      1 C          -4.3110   -4.5870   -5.8710 C.3     1  UNL1        0.0004
      2 N          -3.4370   -3.8610   -4.9850 N.am    1  UNL1       -0.3144
      3 C          -3.7050   -2.5470   -4.6600 C.2     1  UNL1        0.2438
      4 O          -4.6310   -1.9040   -5.1430 O.2     1  UNL1       -0.2702
      5 C          -2.8220   -1.9270   -3.6350 C.ar    1  UNL1        0.0368
      6 C          -1.4960   -2.3320   -3.4540 C.ar    1  UNL1       -0.0477
      7 C          -0.7040   -1.7200   -2.4760 C.ar    1  UNL1       -0.0370
      8 C          -1.2140   -0.6870   -1.6750 C.ar    1  UNL1        0.0498
      9 N          -0.3930   -0.0630   -0.6680 N.ar    1  UNL1       -0.2803
     10 C          -0.2830    1.3350   -0.5430 C.ar    1  UNL1        0.0276
     11 C          -0.8480    2.2540   -1.5980 C.3     1  UNL1       -0.0237
     12 C           0.4360    1.8690    0.4580 C.ar    1  UNL1        0.0009
     13 C           1.0960    1.0440    1.4290 C.ar    1  UNL1        0.1418
     14 O           1.8200    1.7310    2.3830 O.3     1  UNL1       -0.4859
     15 C           1.0000    2.0900    3.5050 C.3     1  UNL1        0.1173
     16 C           1.8600    2.7060    4.5790 C.ar    1  UNL1        0.0250
     17 C           3.1280    2.1880    4.8910 C.ar    1  UNL1       -0.0499
     18 C           3.8880    2.7580    5.9150 C.ar    1  UNL1       -0.0259
     19 C           3.3800    3.8340    6.6330 C.ar    1  UNL1        0.1261
     20 F           4.1120    4.3760    7.6150 F       1  UNL1       -0.2054
     21 C           2.1240    4.3520    6.3530 C.ar    1  UNL1        0.0092
     22 C           1.3740    3.7800    5.3330 C.ar    1  UNL1        0.1325
     23 F           0.1540    4.2740    5.0750 F       1  UNL1       -0.2050
     24 C           1.1110   -0.2920    1.3110 C.ar    1  UNL1        0.1241
     25 BR          2.0570   -1.4060    2.4820 Br      1  UNL1       -0.0409
     26 C           0.3070   -0.9340    0.2120 C.ar    1  UNL1        0.2735
     27 O           0.2600   -2.1650    0.1500 O.2     1  UNL1       -0.2660
     28 C          -2.5440   -0.2890   -1.8660 C.ar    1  UNL1       -0.0370
     29 C          -3.3400   -0.8960   -2.8440 C.ar    1  UNL1       -0.0477
     30 H          -3.7920   -5.4860   -6.2120 H       1  UNL1        0.0426
     31 H          -4.5830   -3.9660   -6.7280 H       1  UNL1        0.0426
     32 H          -5.2140   -4.8660   -5.3220 H       1  UNL1        0.0426
     33 H          -2.8450   -4.3990   -4.3660 H       1  UNL1        0.1487
     34 H          -1.0520   -3.1030   -4.0780 H       1  UNL1        0.0626
     35 H           0.3270   -2.0480   -2.3610 H       1  UNL1        0.0638
     36 H          -0.3850    3.2480   -1.5550 H       1  UNL1        0.0292
     37 H          -1.9220    2.4030   -1.4620 H       1  UNL1        0.0292
     38 H          -0.6550    1.8730   -2.6060 H       1  UNL1        0.0292
     39 H           0.5770    2.9440    0.5380 H       1  UNL1        0.0672
     40 H           0.5030    1.2050    3.9220 H       1  UNL1        0.0749
     41 H           0.2380    2.8060    3.1730 H       1  UNL1        0.0749
     42 H           3.5300    1.3420    4.3370 H       1  UNL1        0.0623
     43 H           4.8720    2.3660    6.1570 H       1  UNL1        0.0646
     44 H           1.7330    5.1860    6.9240 H       1  UNL1        0.0675
     45 H          -2.9970    0.4670   -1.2300 H       1  UNL1        0.0638
     46 H          -4.3710   -0.5750   -2.9750 H       1  UNL1        0.0626
@<TRIPOS>BOND
     1     1     2    1
     2     1    30    1
     3     1    31    1
     4     1    32    1
     5     2     3   am
     6     2    33    1
     7     3     4    2
     8     3     5    1
     9     5     6   ar
    10     5    29   ar
    11     6     7   ar
    12     6    34    1
    13     7     8   ar
    14     7    35    1
    15     8     9    1
    16     8    28   ar
    17     9    10   ar
    18     9    26   ar
    19    10    11    1
    20    10    12   ar
    21    11    36    1
    22    11    37    1
    23    11    38    1
    24    12    13   ar
    25    12    39    1
    26    13    14    1
    27    13    24   ar
    28    14    15    1
    29    15    16    1
    30    15    40    1
    31    15    41    1
    32    16    17   ar
    33    16    22   ar
    34    17    18   ar
    35    17    42    1
    36    18    19   ar
    37    18    43    1
    38    19    20    1
    39    19    21   ar
    40    21    22   ar
    41    21    44    1
    42    22    23    1
    43    24    25    1
    44    24    26   ar
    45    26    27    2
    46    28    29   ar
    47    28    45    1
    48    29    46    1
@<TRIPOS>MOLECULE
AD3CC01179931-I00-C00
 47 50 0 0 0
SMALL
GASTEIGER

@<TRIPOS>ATOM
      1 C          -0.7410   -1.4190   -4.4840 C.3     1  UNL1       -0.0380
      2 C          -2.1950   -1.4490   -4.0880 C.ar    1  UNL1       -0.0292
      3 C          -3.1280   -1.9330   -5.0230 C.ar    1  UNL1       -0.0563
      4 C          -4.4860   -1.9710   -4.7180 C.ar    1  UNL1       -0.0474
      5 C          -4.9320   -1.5280   -3.4720 C.ar    1  UNL1        0.0606
      6 C          -6.3850   -1.5900   -3.1870 C.2     1  UNL1        0.3369
      7 O          -7.2450   -1.9740   -3.9600 O.2     1  UNL1       -0.2451
      8 O          -6.7000   -1.1750   -1.9480 O.3     1  UNL1       -0.4771
      9 C          -4.0070   -1.0470   -2.5350 C.ar    1  UNL1       -0.0263
     10 C          -2.6320   -1.0050   -2.8160 C.ar    1  UNL1        0.0361
     11 N          -1.6940   -0.5030   -1.8890 N.pl3   1  UNL1       -0.2975
     12 C          -1.8770    0.3670   -0.8330 C.ar    1  UNL1        0.1506
     13 N          -2.9760    1.0470   -0.6810 N.ar    1  UNL1       -0.2167
     14 C          -3.0960    1.9480    0.3410 C.ar    1  UNL1        0.1388
     15 N          -2.1960    2.2480    1.2210 N.ar    1  UNL1       -0.1548
     16 N          -1.0610    1.5540    1.0820 N.ar    1  UNL1       -0.2342
     17 C           0.0410    1.6950    1.8730 C.ar    1  UNL1        0.0411
     18 C           0.9970    0.7750    1.4820 C.ar    1  UNL1        0.0454
     19 C           2.3380    0.6210    2.0550 C.2     1  UNL1        0.1949
     20 O           3.2770    0.1860    1.3920 O.2     1  UNL1       -0.2866
     21 C           2.5920    1.0110    3.4680 C.ar    1  UNL1        0.0223
     22 C           1.6640    0.7510    4.4850 C.ar    1  UNL1       -0.0509
     23 C           1.9520    1.1150    5.8020 C.ar    1  UNL1       -0.0611
     24 C           3.1690    1.7260    6.1080 C.ar    1  UNL1       -0.0617
     25 C           4.1040    1.9670    5.1030 C.ar    1  UNL1       -0.0611
     26 C           3.8210    1.6050    3.7850 C.ar    1  UNL1       -0.0509
     27 C           0.4240    0.0470    0.3740 C.ar    1  UNL1       -0.0094
     28 C           1.0790   -1.0810   -0.3490 C.3     1  UNL1       -0.0369
     29 C          -0.8310    0.6000    0.1360 C.ar    1  UNL1        0.1089
     30 H          -0.3410   -0.4040   -4.3890 H       1  UNL1        0.0278
     31 H          -0.5990   -1.7280   -5.5260 H       1  UNL1        0.0278
     32 H          -0.1640   -2.1030   -3.8540 H       1  UNL1        0.0278
     33 H          -2.8010   -2.2790   -6.0020 H       1  UNL1        0.0621
     34 H          -5.1940   -2.3450   -5.4550 H       1  UNL1        0.0626
     35 H          -7.6740   -1.2690   -1.9080 H       1  UNL1        0.2954
     36 H          -4.3710   -0.7240   -1.5630 H       1  UNL1        0.0644
     37 H          -0.7390   -0.7560   -2.0860 H       1  UNL1        0.1536
     38 H          -4.0660    2.4720    0.4000 H       1  UNL1        0.1066
     39 H           0.0470    2.4520    2.6460 H       1  UNL1        0.0837
     40 H           0.7220    0.2530    4.2700 H       1  UNL1        0.0625
     41 H           1.2310    0.9170    6.5910 H       1  UNL1        0.0618
     42 H           3.3920    2.0070    7.1350 H       1  UNL1        0.0618
     43 H           5.0570    2.4320    5.3450 H       1  UNL1        0.0618
     44 H           4.5590    1.7860    3.0060 H       1  UNL1        0.0625
     45 H           1.8690   -1.5460    0.2480 H       1  UNL1        0.0278
     46 H           1.5180   -0.7280   -1.2870 H       1  UNL1        0.0278
     47 H           0.3580   -1.8730   -0.5710 H       1  UNL1        0.0278
@<TRIPOS>BOND
     1     1     2    1
     2     1    30    1
     3     1    31    1
     4     1    32    1
     5     2     3   ar
     6     2    10   ar
     7     3     4   ar
     8     3    33    1
     9     4     5   ar
    10     4    34    1
    11     5     6    1
    12     5     9   ar
    13     6     7    2
    14     6     8    1
    15     8    35    1
    16     9    10   ar
    17     9    36    1
    18    10    11    1
    19    11    12    1
    20    11    37    1
    21    12    13   ar
    22    12    29   ar
    23    13    14   ar
    24    14    15   ar
    25    14    38    1
    26    15    16   ar
    27    16    17   ar
    28    16    29   ar
    29    17    18   ar
    30    17    39    1
    31    18    19    1
    32    18    27   ar
    33    19    20    2
    34    19    21    1
    35    21    22   ar
    36    21    26   ar
    37    22    23   ar
    38    22    40    1
    39    23    24   ar
    40    23    41    1
    41    24    25   ar
    42    24    42    1
    43    25    26   ar
    44    25    43    1
    45    26    44    1
    46    27    28    1
    47    27    29   ar
    48    28    45    1
    49    28    46    1
    50    28    47    1
@<TRIPOS>MOLECULE
AD3CC01179939-I00-C00
 51 54 0 0 0
SMALL
GASTEIGER

@<TRIPOS>ATOM
      1 C          -1.1640    3.5820    5.2740 C.3     1  UNL1        0.0004
      2 N          -0.9360    3.2900    3.8820 N.am    1  UNL1       -0.3144
      3 C          -0.2600    4.1870    3.0790 C.2     1  UNL1        0.2439
      4 O           0.2370    5.2270    3.4950 O.2     1  UNL1       -0.2702
      5 C          -0.1950    3.8540    1.6290 C.ar    1  UNL1        0.0385
      6 C          -0.0720    4.8970    0.7110 C.ar    1  UNL1       -0.0493
      7 C          -0.0170    4.6180   -0.6520 C.ar    1  UNL1       -0.0564
      8 C          -0.0810    3.2930   -1.1190 C.ar    1  UNL1       -0.0292
      9 C          -0.0350    3.0590   -2.6070 C.3     1  UNL1       -0.0380
     10 C          -0.1760    2.2230   -0.1960 C.ar    1  UNL1        0.0361
     11 N          -0.2480    0.8940   -0.6640 N.pl3   1  UNL1       -0.2975
     12 C          -0.7740   -0.2280   -0.0550 C.ar    1  UNL1        0.1506
     13 N          -1.4940   -0.1540    1.0280 N.ar    1  UNL1       -0.2167
     14 C          -2.0540   -1.2830    1.5620 C.ar    1  UNL1        0.1388
     15 N          -1.9710   -2.4870    1.0960 N.ar    1  UNL1       -0.1548
     16 N          -1.2280   -2.5810   -0.0130 N.ar    1  UNL1       -0.2342
     17 C          -0.9990   -3.7360   -0.7020 C.ar    1  UNL1        0.0411
     18 C          -0.1380   -3.4690   -1.7520 C.ar    1  UNL1        0.0454
     19 C           0.3300   -4.4320   -2.7530 C.2     1  UNL1        0.1949
     20 O           0.6450   -4.0820   -3.8880 O.2     1  UNL1       -0.2866
     21 C           0.4190   -5.8780   -2.4120 C.ar    1  UNL1        0.0225
     22 C           0.8710   -6.3150   -1.1580 C.ar    1  UNL1       -0.0482
     23 C           0.9610   -7.6830   -0.8900 C.ar    1  UNL1       -0.0258
     24 C           0.6140   -8.6030   -1.8750 C.ar    1  UNL1        0.1234
     25 F           0.7030   -9.9130   -1.6130 F       1  UNL1       -0.2055
     26 C           0.1840   -8.1830   -3.1290 C.ar    1  UNL1       -0.0258
     27 C           0.0920   -6.8170   -3.4020 C.ar    1  UNL1       -0.0482
     28 C           0.1520   -2.0560   -1.6850 C.ar    1  UNL1       -0.0094
     29 C           1.0750   -1.3210   -2.5970 C.3     1  UNL1       -0.0369
     30 C          -0.5850   -1.5440   -0.6200 C.ar    1  UNL1        0.1089
     31 C          -0.2300    2.5290    1.1730 C.ar    1  UNL1       -0.0281
     32 H          -1.9750    4.3100    5.3520 H       1  UNL1        0.0426
     33 H          -1.4470    2.6570    5.7810 H       1  UNL1        0.0426
     34 H          -0.2590    3.9950    5.7290 H       1  UNL1        0.0426
     35 H          -1.5270    2.5970    3.4420 H       1  UNL1        0.1487
     36 H          -0.0240    5.9280    1.0560 H       1  UNL1        0.0625
     37 H           0.0700    5.4470   -1.3520 H       1  UNL1        0.0621
     38 H           0.8800    2.5230   -2.8770 H       1  UNL1        0.0278
     39 H          -0.9080    2.4820   -2.9280 H       1  UNL1        0.0278
     40 H          -0.0460    4.0010   -3.1650 H       1  UNL1        0.0278
     41 H           0.0460    0.7760   -1.6210 H       1  UNL1        0.1536
     42 H          -2.6420   -1.1310    2.4830 H       1  UNL1        0.1066
     43 H          -1.4820   -4.6490   -0.3820 H       1  UNL1        0.0837
     44 H           1.1700   -5.6060   -0.3900 H       1  UNL1        0.0625
     45 H           1.3060   -8.0380    0.0770 H       1  UNL1        0.0646
     46 H          -0.0700   -8.9190   -3.8850 H       1  UNL1        0.0646
     47 H          -0.2330   -6.4850   -4.3870 H       1  UNL1        0.0625
     48 H           1.6800   -0.5990   -2.0390 H       1  UNL1        0.0278
     49 H           0.5070   -0.7880   -3.3660 H       1  UNL1        0.0278
     50 H           1.7810   -1.9920   -3.0930 H       1  UNL1        0.0278
     51 H          -0.2500    1.7240    1.9000 H       1  UNL1        0.0644
@<TRIPOS>BOND
     1     1     2    1
     2     1    32    1
     3     1    33    1
     4     1    34    1
     5     2     3   am
     6     2    35    1
     7     3     4    2
     8     3     5    1
     9     5     6   ar
    10     5    31   ar
    11     6     7   ar
    12     6    36    1
    13     7     8   ar
    14     7    37    1
    15     8     9    1
    16     8    10   ar
    17     9    38    1
    18     9    39    1
    19     9    40    1
    20    10    11    1
    21    10    31   ar
    22    11    12    1
    23    11    41    1
    24    12    13   ar
    25    12    30   ar
    26    13    14   ar
    27    14    15   ar
    28    14    42    1
    29    15    16   ar
    30    16    17   ar
    31    16    30   ar
    32    17    18   ar
    33    17    43    1
    34    18    19    1
    35    18    28   ar
    36    19    20    2
    37    19    21    1
    38    21    22   ar
    39    21    27   ar
    40    22    23   ar
    41    22    44    1
    42    23    24   ar
    43    23    45    1
    44    24    25    1
    45    24    26   ar
    46    26    27   ar
    47    26    46    1
    48    27    47    1
    49    28    29    1
    50    28    30   ar
    51    29    48    1
    52    29    49    1
    53    29    50    1
    54    31    51    1
@<TRIPOS>MOLECULE
AD3CC01182895-I00-C00
 37 40 0 0 0
SMALL
GASTEIGER

@<TRIPOS>ATOM
      1 N          -0.4570    0.2070   -3.1970 N.pl3   1  UNL1       -0.3424
      2 C          -0.2820    0.2940   -1.8480 C.ar    1  UNL1        0.1328
      3 C           0.5620   -0.4380   -1.0440 C.ar    1  UNL1        0.1058
      4 C           1.4600   -1.5340   -1.3290 C.ar    1  UNL1        0.2618
      5 O           1.6100   -2.0330   -2.4400 O.2     1  UNL1       -0.2671
      6 N           2.1680   -1.9760   -0.2190 N.ar    1  UNL1       -0.3214
      7 C           2.0670   -1.4360    1.0560 C.ar    1  UNL1        0.0513
      8 C           2.9020   -2.0200    2.1160 C.ar    1  UNL1       -0.0016
      9 C           4.2960   -2.0660    1.9710 C.ar    1  UNL1       -0.0526
     10 C           5.0940   -2.6270    2.9710 C.ar    1  UNL1       -0.0611
     11 C           4.5060   -3.1500    4.1210 C.ar    1  UNL1       -0.0617
     12 C           3.1220   -3.1110    4.2750 C.ar    1  UNL1       -0.0611
     13 C           2.3220   -2.5500    3.2770 C.ar    1  UNL1       -0.0526
     14 C           1.2390   -0.3990    1.2980 C.ar    1  UNL1       -0.0097
     15 C           0.4540    0.1330    0.2340 C.ar    1  UNL1        0.1022
     16 N          -0.3850    1.1630    0.2720 N.ar    1  UNL1       -0.1644
     17 N          -0.9230    1.2100   -0.9900 N.ar    1  UNL1       -0.2176
     18 C          -2.0010    2.1100   -1.2540 C.ar    1  UNL1        0.0674
     19 C          -2.2700    3.1400   -0.3370 C.ar    1  UNL1       -0.0362
     20 C          -3.3160    4.0380   -0.5660 C.ar    1  UNL1       -0.0598
     21 C          -4.1110    3.9070   -1.7020 C.ar    1  UNL1       -0.0616
     22 C          -3.8680    2.8730   -2.6040 C.ar    1  UNL1       -0.0598
     23 C          -2.8210    1.9730   -2.3810 C.ar    1  UNL1       -0.0362
     24 H           0.1840   -0.4140   -3.7000 H       1  UNL1        0.1437
     25 H          -0.6090    1.0650   -3.7250 H       1  UNL1        0.1437
     26 H           2.7900   -2.7580   -0.3810 H       1  UNL1        0.1689
     27 H           4.7730   -1.6530    1.0850 H       1  UNL1        0.0624
     28 H           6.1750   -2.6540    2.8530 H       1  UNL1        0.0618
     29 H           5.1280   -3.5860    4.8990 H       1  UNL1        0.0618
     30 H           2.6630   -3.5210    5.1720 H       1  UNL1        0.0618
     31 H           1.2420   -2.5380    3.4100 H       1  UNL1        0.0624
     32 H           1.1520    0.0550    2.2800 H       1  UNL1        0.0660
     33 H          -1.6630    3.2650    0.5580 H       1  UNL1        0.0639
     34 H          -3.5090    4.8360    0.1460 H       1  UNL1        0.0618
     35 H          -4.9270    4.6030   -1.8770 H       1  UNL1        0.0618
     36 H          -4.5060    2.7560   -3.4770 H       1  UNL1        0.0618
     37 H          -2.7080    1.1490   -3.0780 H       1  UNL1        0.0639
@<TRIPOS>BOND
     1     1     2    1
     2     1    24    1
     3     1    25    1
     4     2     3   ar
     5     2    17   ar
     6     3     4   ar
     7     3    15   ar
     8     4     5    2
     9     4     6   ar
    10     6     7   ar
    11     6    26    1
    12     7     8    1
    13     7    14   ar
    14     8     9   ar
    15     8    13   ar
    16     9    10   ar
    17     9    27    1
    18    10    11   ar
    19    10    28    1
    20    11    12   ar
    21    11    29    1
    22    12    13   ar
    23    12    30    1
    24    13    31    1
    25    14    15   ar
    26    14    32    1
    27    15    16   ar
    28    16    17   ar
    29    17    18    1
    30    18    19   ar
    31    18    23   ar
    32    19    20   ar
    33    19    33    1
    34    20    21   ar
    35    20    34    1
    36    21    22   ar
    37    21    35    1
    38    22    23   ar
    39    22    36    1
    40    23    37    1
@<TRIPOS>MOLECULE
AD3CC01187503-I00-C02
 55 59 0 0 0
SMALL
GASTEIGER

@<TRIPOS>ATOM
      1 C          -1.5600   -0.3310   -3.9530 C.3     1  UNL1       -0.0223
      2 C          -0.3040    0.2560   -3.3840 C.ar    1  UNL1        0.0390
      3 C           0.6780    0.7630   -4.2280 C.ar    1  UNL1       -0.0406
      4 C           1.8240    1.3120   -3.6650 C.ar    1  UNL1       -0.0580
      5 C           1.9550    1.3470   -2.2800 C.ar    1  UNL1       -0.0341
      6 C           0.9290    0.8280   -1.4970 C.ar    1  UNL1        0.0918
      7 C           1.0250    0.8240   -0.0290 C.ar    1  UNL1        0.1185
      8 N           2.2200    0.8780    0.5970 N.ar    1  UNL1       -0.1690
      9 N           1.9240    0.8020    1.9080 N.ar    1  UNL1       -0.2698
     10 C           3.0030    0.6690    2.8720 C.3     1  UNL1        0.0498
     11 C           3.9220   -0.5110    2.5780 C.3     1  UNL1        0.0438
     12 C           3.1570   -1.8170    2.6660 C.2     1  UNL1        0.2190
     13 O           3.1440   -2.4500    3.7170 O.2     1  UNL1       -0.2754
     14 N           2.4840   -2.1250    1.5000 N.am    1  UNL1       -0.2854
     15 C           1.5850   -3.1880    1.2800 C.ar    1  UNL1        0.0334
     16 C           1.3570   -4.2200    2.1910 C.ar    1  UNL1       -0.0405
     17 C           0.4290   -5.2260    1.9020 C.ar    1  UNL1       -0.0600
     18 C          -0.2780   -5.2090    0.7010 C.ar    1  UNL1       -0.0616
     19 C          -0.0550   -4.1850   -0.2150 C.ar    1  UNL1       -0.0600
     20 C           0.8750   -3.1820    0.0720 C.ar    1  UNL1       -0.0405
     21 C           0.5920    0.6990    2.1620 C.ar    1  UNL1        0.0339
     22 C          -0.0300    0.6990    0.9310 C.ar    1  UNL1        0.0290
     23 C          -1.4620    0.5550    0.7760 C.ar    1  UNL1       -0.0122
     24 C          -2.1090   -0.5890    1.2460 C.ar    1  UNL1       -0.0518
     25 C          -3.4870   -0.7250    1.0760 C.ar    1  UNL1       -0.0337
     26 C          -4.2370    0.2610    0.4480 C.ar    1  UNL1        0.0892
     27 N          -5.5670    0.0930    0.3070 N.ar    1  UNL1       -0.2519
     28 C          -6.2350    1.0930   -0.3060 C.ar    1  UNL1        0.0464
     29 C          -5.6020    2.2280   -0.7690 C.ar    1  UNL1        0.0464
     30 N          -4.2710    2.4140   -0.6400 N.ar    1  UNL1       -0.2519
     31 C          -3.5830    1.4270   -0.0290 C.ar    1  UNL1        0.0897
     32 C          -2.2100    1.5530    0.1420 C.ar    1  UNL1       -0.0264
     33 N          -0.1870    0.2750   -2.0360 N.ar    1  UNL1       -0.2503
     34 H          -1.3190   -1.1640   -4.6260 H       1  UNL1        0.0292
     35 H          -2.1150    0.4340   -4.5080 H       1  UNL1        0.0292
     36 H          -2.2070   -0.7140   -3.1530 H       1  UNL1        0.0292
     37 H           0.5550    0.7330   -5.3070 H       1  UNL1        0.0635
     38 H           2.6090    1.7130   -4.2990 H       1  UNL1        0.0619
     39 H           2.8410    1.7750   -1.8230 H       1  UNL1        0.0639
     40 H           2.5500    0.5710    3.8660 H       1  UNL1        0.0513
     41 H           3.5640    1.6100    2.8450 H       1  UNL1        0.0513
     42 H           4.7370   -0.5420    3.3100 H       1  UNL1        0.0376
     43 H           4.3920   -0.4260    1.5910 H       1  UNL1        0.0376
     44 H           2.5390   -1.4380    0.7500 H       1  UNL1        0.1548
     45 H           1.8900   -4.2740    3.1340 H       1  UNL1        0.0636
     46 H           0.2610   -6.0250    2.6190 H       1  UNL1        0.0618
     47 H          -1.0000   -5.9910    0.4820 H       1  UNL1        0.0618
     48 H          -0.6050   -4.1610   -1.1510 H       1  UNL1        0.0618
     49 H           1.0210   -2.3890   -0.6580 H       1  UNL1        0.0636
     50 H           0.2040    0.6040    3.1670 H       1  UNL1        0.0833
     51 H          -1.5480   -1.3880    1.7280 H       1  UNL1        0.0624
     52 H          -3.9870   -1.6210    1.4360 H       1  UNL1        0.0640
     53 H          -7.3050    0.9530   -0.4130 H       1  UNL1        0.0845
     54 H          -6.1480    3.0250   -1.2560 H       1  UNL1        0.0845
     55 H          -1.7200    2.4470   -0.2390 H       1  UNL1        0.0645
@<TRIPOS>BOND
     1     1     2    1
     2     1    34    1
     3     1    35    1
     4     1    36    1
     5     2     3   ar
     6     2    33   ar
     7     3     4   ar
     8     3    37    1
     9     4     5   ar
    10     4    38    1
    11     5     6   ar
    12     5    39    1
    13     6     7    1
    14     6    33   ar
    15     7     8   ar
    16     7    22   ar
    17     8     9   ar
    18     9    10    1
    19     9    21   ar
    20    10    11    1
    21    10    40    1
    22    10    41    1
    23    11    12    1
    24    11    42    1
    25    11    43    1
    26    12    13    2
    27    12    14   am
    28    14    15    1
    29    14    44    1
    30    15    16   ar
    31    15    20   ar
    32    16    17   ar
    33    16    45    1
    34    17    18   ar
    35    17    46    1
    36    18    19   ar
    37    18    47    1
    38    19    20   ar
    39    19    48    1
    40    20    49    1
    41    21    22   ar
    42    21    50    1
    43    22    23    1
    44    23    24   ar
    45    23    32   ar
    46    24    25   ar
    47    24    51    1
    48    25    26   ar
    49    25    52    1
    50    26    27   ar
    51    26    31   ar
    52    27    28   ar
    53    28    29   ar
    54    28    53    1
    55    29    30   ar
    56    29    54    1
    57    30    31   ar
    58    31    32   ar
    59    32    55    1
@<TRIPOS>MOLECULE
AD3CC01244479-I00-C00
 48 52 0 0 0
SMALL
GASTEIGER

@<TRIPOS>ATOM
      1 C          -1.5390    6.4610   -1.7970 C.3     1  UNL1        0.0138
      2 C          -0.5950    5.8070   -2.7180 C.ar    1  UNL1        0.2147
      3 N          -0.0290    6.2690   -3.8110 N.ar    1  UNL1       -0.1124
      4 N           0.7680    5.2500   -4.2920 N.ar    1  UNL1       -0.1073
      5 C           0.6330    4.2380   -3.4580 C.ar    1  UNL1        0.2483
      6 C           1.2440    2.9150   -3.4830 C.ar    1  UNL1        0.0391
      7 C           2.1230    2.5770   -4.5170 C.ar    1  UNL1       -0.0492
      8 C           2.7220    1.3160   -4.5640 C.ar    1  UNL1       -0.0575
      9 C           2.4560    0.3580   -3.5750 C.ar    1  UNL1       -0.0427
     10 C           3.1220   -0.9900   -3.6620 C.3     1  UNL1       -0.0391
     11 C           1.5710    0.6770   -2.5230 C.ar    1  UNL1       -0.0142
     12 C           1.2450   -0.2790   -1.4570 C.ar    1  UNL1       -0.0158
     13 C           2.0060   -0.3010   -0.2630 C.ar    1  UNL1       -0.0536
     14 C           1.7180   -1.1980    0.7730 C.ar    1  UNL1       -0.0552
     15 C           0.6590   -2.0720    0.6020 C.ar    1  UNL1       -0.0112
     16 C          -0.0910   -2.0450   -0.5720 C.ar    1  UNL1        0.0382
     17 C           0.1720   -1.1720   -1.6070 C.ar    1  UNL1       -0.0325
     18 N          -1.0950   -2.9970   -0.5150 N.am    1  UNL1       -0.2845
     19 C          -1.0650   -3.6980    0.6840 C.2     1  UNL1        0.2278
     20 O          -1.8330   -4.5930    0.9960 O.2     1  UNL1       -0.2745
     21 C           0.1120   -3.1350    1.5230 C.3     1  UNL1        0.0738
     22 C          -0.3840   -2.5950    2.8760 C.3     1  UNL1       -0.0349
     23 C           0.4690   -3.2980    3.9270 C.3     1  UNL1       -0.0518
     24 C           0.8220   -4.6290    3.2860 C.3     1  UNL1       -0.0518
     25 C           1.1220   -4.2480    1.8410 C.3     1  UNL1       -0.0349
     26 C           0.9780    1.9550   -2.4950 C.ar    1  UNL1       -0.0415
     27 O          -0.2250    4.5230   -2.4250 O.2     1  UNL1       -0.4205
     28 H          -1.1170    6.5150   -0.7890 H       1  UNL1        0.0324
     29 H          -2.4780    5.9030   -1.7520 H       1  UNL1        0.0324
     30 H          -1.7610    7.4790   -2.1300 H       1  UNL1        0.0324
     31 H           2.3510    3.3000   -5.3000 H       1  UNL1        0.0625
     32 H           3.4020    1.0890   -5.3830 H       1  UNL1        0.0621
     33 H           2.3730   -1.7800   -3.7670 H       1  UNL1        0.0278
     34 H           3.7300   -1.1750   -2.7700 H       1  UNL1        0.0278
     35 H           3.7880   -1.0520   -4.5290 H       1  UNL1        0.0278
     36 H           2.8380    0.3920   -0.1440 H       1  UNL1        0.0624
     37 H           2.3120   -1.2010    1.6810 H       1  UNL1        0.0621
     38 H          -0.4290   -1.1730   -2.5100 H       1  UNL1        0.0642
     39 H          -1.7760   -3.1820   -1.2360 H       1  UNL1        0.1548
     40 H          -1.4390   -2.8470    3.0410 H       1  UNL1        0.0278
     41 H          -0.2950   -1.5080    2.9750 H       1  UNL1        0.0278
     42 H          -0.0600   -3.4200    4.8760 H       1  UNL1        0.0266
     43 H           1.3800   -2.7190    4.1180 H       1  UNL1        0.0266
     44 H           1.6740   -5.1120    3.7720 H       1  UNL1        0.0266
     45 H          -0.0330   -5.3130    3.3300 H       1  UNL1        0.0266
     46 H           1.0360   -5.1160    1.1790 H       1  UNL1        0.0278
     47 H           2.1550   -3.8860    1.7750 H       1  UNL1        0.0278
     48 H           0.2950    2.1960   -1.6790 H       1  UNL1        0.0631
@<TRIPOS>BOND
     1     1     2    1
     2     1    28    1
     3     1    29    1
     4     1    30    1
     5     2     3   ar
     6     2    27   ar
     7     3     4   ar
     8     4     5   ar
     9     5     6    1
    10     5    27   ar
    11     6     7   ar
    12     6    26   ar
    13     7     8   ar
    14     7    31    1
    15     8     9   ar
    16     8    32    1
    17     9    10    1
    18     9    11   ar
    19    10    33    1
    20    10    34    1
    21    10    35    1
    22    11    12    1
    23    11    26   ar
    24    12    13   ar
    25    12    17   ar
    26    13    14   ar
    27    13    36    1
    28    14    15   ar
    29    14    37    1
    30    15    16   ar
    31    15    21    1
    32    16    17   ar
    33    16    18    1
    34    17    38    1
    35    18    19   am
    36    18    39    1
    37    19    20    2
    38    21    19    1
    39    21    22    1
    40    21    25    1
    41    22    23    1
    42    22    40    1
    43    22    41    1
    44    23    24    1
    45    23    42    1
    46    23    43    1
    47    24    25    1
    48    24    44    1
    49    24    45    1
    50    25    46    1
    51    25    47    1
    52    26    48    1
@<TRIPOS>MOLECULE
AD3CC01244482-I00-C01
 51 55 0 0 0
SMALL
GASTEIGER

@<TRIPOS>ATOM
      1 C          -3.6050    1.7010   -6.8900 C.3     1  UNL1       -0.0229
      2 C          -4.2430    1.8510   -5.5660 C.ar    1  UNL1        0.0327
      3 C          -5.4780    2.3140   -5.1800 C.ar    1  UNL1        0.0488
      4 N          -5.6110    2.2650   -3.8180 N.ar    1  UNL1       -0.2358
      5 C          -4.4780    1.7730   -3.3450 C.ar    1  UNL1        0.1383
      6 C          -4.1660    1.5450   -1.9290 C.ar    1  UNL1        0.0178
      7 C          -5.0610    1.9970   -0.9530 C.ar    1  UNL1       -0.0508
      8 C          -4.8040    1.8050    0.4070 C.ar    1  UNL1       -0.0576
      9 C          -3.6400    1.1490    0.8300 C.ar    1  UNL1       -0.0427
     10 C          -3.4000    0.9600    2.3040 C.3     1  UNL1       -0.0391
     11 C          -2.7260    0.6770   -0.1360 C.ar    1  UNL1       -0.0142
     12 C          -1.4920   -0.0290    0.2360 C.ar    1  UNL1       -0.0158
     13 C          -0.2870    0.6900    0.4180 C.ar    1  UNL1       -0.0536
     14 C           0.9050    0.0450    0.7670 C.ar    1  UNL1       -0.0552
     15 C           0.8800   -1.3300    0.9300 C.ar    1  UNL1       -0.0110
     16 C          -0.3070   -2.0340    0.7470 C.ar    1  UNL1        0.0382
     17 C          -1.4950   -1.4230    0.4030 C.ar    1  UNL1       -0.0325
     18 N          -0.0930   -3.3840    0.9610 N.am    1  UNL1       -0.2845
     19 C           1.2280   -3.6450    1.2940 C.2     1  UNL1        0.2279
     20 O           1.6820   -4.7520    1.5330 O.2     1  UNL1       -0.2745
     21 C           1.9950   -2.2910    1.3020 C.3     1  UNL1        0.0779
     22 C           3.1020   -2.3060    0.2400 C.3     1  UNL1       -0.0113
     23 C           4.3250   -3.0830    0.7120 C.3     1  UNL1        0.0489
     24 O           4.7700   -2.5850    1.9710 O.3     1  UNL1       -0.3797
     25 C           3.8040   -2.8000    2.9970 C.3     1  UNL1        0.0489
     26 C           2.5390   -2.0020    2.7070 C.3     1  UNL1       -0.0113
     27 C          -3.0050    0.8840   -1.5040 C.ar    1  UNL1       -0.0431
     28 N          -3.6200    1.5150   -4.3910 N.ar    1  UNL1       -0.3419
     29 H          -2.6940    2.3040   -6.9510 H       1  UNL1        0.0292
     30 H          -4.2800    2.0240   -7.6900 H       1  UNL1        0.0292
     31 H          -3.3400    0.6550   -7.0740 H       1  UNL1        0.0292
     32 H          -6.2800    2.6810   -5.8080 H       1  UNL1        0.0848
     33 H          -5.9740    2.5100   -1.2530 H       1  UNL1        0.0625
     34 H          -5.5260    2.1740    1.1320 H       1  UNL1        0.0621
     35 H          -4.1940    1.4190    2.9010 H       1  UNL1        0.0278
     36 H          -3.3760   -0.1060    2.5530 H       1  UNL1        0.0278
     37 H          -2.4560    1.4280    2.6020 H       1  UNL1        0.0278
     38 H          -0.2830    1.7730    0.2910 H       1  UNL1        0.0624
     39 H           1.8190    0.6150    0.9070 H       1  UNL1        0.0621
     40 H          -2.4050   -1.9970    0.2690 H       1  UNL1        0.0642
     41 H          -0.7920   -4.1090    0.8940 H       1  UNL1        0.1548
     42 H           2.7420   -2.7260   -0.7080 H       1  UNL1        0.0301
     43 H           3.4180   -1.2750    0.0340 H       1  UNL1        0.0301
     44 H           5.1420   -2.9500   -0.0050 H       1  UNL1        0.0560
     45 H           4.1310   -4.1580    0.7840 H       1  UNL1        0.0560
     46 H           3.6030   -3.8720    3.1000 H       1  UNL1        0.0560
     47 H           4.2430   -2.4630    3.9420 H       1  UNL1        0.0560
     48 H           1.7880   -2.2100    3.4790 H       1  UNL1        0.0301
     49 H           2.7900   -0.9360    2.7840 H       1  UNL1        0.0301
     50 H          -2.2910    0.5040   -2.2290 H       1  UNL1        0.0631
     51 H          -2.6840    1.1490   -4.3050 H       1  UNL1        0.1671
@<TRIPOS>BOND
     1     1     2    1
     2     1    29    1
     3     1    30    1
     4     1    31    1
     5     2     3   ar
     6     2    28   ar
     7     3     4   ar
     8     3    32    1
     9     4     5   ar
    10     5     6    1
    11     5    28   ar
    12     6     7   ar
    13     6    27   ar
    14     7     8   ar
    15     7    33    1
    16     8     9   ar
    17     8    34    1
    18     9    10    1
    19     9    11   ar
    20    10    35    1
    21    10    36    1
    22    10    37    1
    23    11    12    1
    24    11    27   ar
    25    12    13   ar
    26    12    17   ar
    27    13    14   ar
    28    13    38    1
    29    14    15   ar
    30    14    39    1
    31    15    16   ar
    32    15    21    1
    33    16    17   ar
    34    16    18    1
    35    17    40    1
    36    18    19   am
    37    18    41    1
    38    19    20    2
    39    21    19    1
    40    21    22    1
    41    21    26    1
    42    22    23    1
    43    22    42    1
    44    22    43    1
    45    23    24    1
    46    23    44    1
    47    23    45    1
    48    24    25    1
    49    25    26    1
    50    25    46    1
    51    25    47    1
    52    26    48    1
    53    26    49    1
    54    27    50    1
    55    28    51    1
@<TRIPOS>MOLECULE
AD3CC01246566-I00-C00
 48 51 0 0 0
SMALL
GASTEIGER

@<TRIPOS>ATOM
      1 C           3.1620   -1.3010    1.3190 C.3     1  UNL1       -0.0389
      2 C           1.8570   -1.8130    1.8710 C.ar    1  UNL1       -0.0351
      3 C           1.8850   -2.7360    2.9320 C.ar    1  UNL1       -0.0357
      4 C           0.7020   -3.2550    3.4610 C.ar    1  UNL1        0.0480
      5 N           0.7890   -4.2080    4.5170 N.pl3   1  UNL1       -0.2209
      6 S           0.0950   -5.7310    4.3290 S.O2    1  UNL1        0.0403
      7 C           0.8740   -6.3380    2.8440 C.3     1  UNL1        0.0736
      8 O          -1.3250   -5.6000    4.0900 O.2     1  UNL1       -0.1555
      9 O           0.5950   -6.5200    5.4360 O.2     1  UNL1       -0.1555
     10 C          -0.5230   -2.8380    2.9550 C.ar    1  UNL1       -0.0386
     11 C          -0.5650   -1.9320    1.8930 C.ar    1  UNL1       -0.0462
     12 C           0.6150   -1.4170    1.3250 C.ar    1  UNL1        0.0527
     13 C           0.5150   -0.4840    0.1840 C.ar    1  UNL1        0.2525
     14 C           0.1980    0.8770    0.3580 C.ar    1  UNL1        0.1445
     15 N          -0.0170    1.3590    1.6000 N.ar    1  UNL1       -0.2483
     16 C          -0.3160    2.6600    1.7700 C.ar    1  UNL1        0.0291
     17 C          -0.4250    3.5530    0.7300 C.ar    1  UNL1       -0.0352
     18 C          -0.2100    3.0920   -0.5720 C.ar    1  UNL1       -0.0041
     19 C          -0.3240    4.0570   -1.6770 C.ar    1  UNL1        0.0182
     20 C          -1.5840    4.4130   -2.1890 C.ar    1  UNL1       -0.0486
     21 C          -1.6890    5.3340   -3.2340 C.ar    1  UNL1       -0.0257
     22 C          -0.5390    5.9040   -3.7690 C.ar    1  UNL1        0.1262
     23 F          -0.6460    6.7860   -4.7710 F       1  UNL1       -0.2054
     24 C           0.7170    5.5740   -3.2820 C.ar    1  UNL1        0.0094
     25 C           0.8140    4.6560   -2.2420 C.ar    1  UNL1        0.1338
     26 F           2.0340    4.3390   -1.7800 F       1  UNL1       -0.2048
     27 C           0.1090    1.7200   -0.7750 C.ar    1  UNL1        0.0203
     28 C           0.3350    1.1720   -2.0490 C.ar    1  UNL1        0.0132
     29 C           0.6450   -0.1720   -2.1880 C.ar    1  UNL1        0.1841
     30 N           0.7390   -1.0090   -1.0940 N.ar    1  UNL1       -0.1686
     31 O           1.0260   -2.2360   -1.2990 O.co2   1  UNL1       -0.6193
     32 H           3.9970   -1.5380    1.9870 H       1  UNL1        0.0278
     33 H           3.3680   -1.7590    0.3470 H       1  UNL1        0.0278
     34 H           3.1390   -0.2120    1.2140 H       1  UNL1        0.0278
     35 H           2.8430   -3.0550    3.3350 H       1  UNL1        0.0639
     36 H           1.6670   -4.2520    5.0310 H       1  UNL1        0.1733
     37 H           0.5490   -5.7410    1.9910 H       1  UNL1        0.0482
     38 H           0.5610   -7.3750    2.7050 H       1  UNL1        0.0482
     39 H           1.9580   -6.2960    2.9690 H       1  UNL1        0.0482
     40 H          -1.4570   -3.2030    3.3750 H       1  UNL1        0.0637
     41 H          -1.5360   -1.6290    1.5060 H       1  UNL1        0.0626
     42 H          -0.4700    2.9710    2.7990 H       1  UNL1        0.0830
     43 H          -0.6650    4.5930    0.9320 H       1  UNL1        0.0639
     44 H          -2.4900    3.9720   -1.7750 H       1  UNL1        0.0625
     45 H          -2.6610    5.6110   -3.6340 H       1  UNL1        0.0646
     46 H           1.6080    6.0240   -3.7050 H       1  UNL1        0.0675
     47 H           0.2740    1.7770   -2.9500 H       1  UNL1        0.0684
     48 H           0.8330   -0.6700   -3.1270 H       1  UNL1        0.1390
@<TRIPOS>UNITY_ATOM_ATTR
30 1
charge 1
31 1
charge -1
@<TRIPOS>BOND
     1     1     2    1
     2     1    32    1
     3     1    33    1
     4     1    34    1
     5     2     3   ar
     6     2    12   ar
     7     3     4   ar
     8     3    35    1
     9     4     5    1
    10     4    10   ar
    11     6     5    1
    12     5    36    1
    13     6     7    1
    14     6     8    2
    15     6     9    2
    16     7    37    1
    17     7    38    1
    18     7    39    1
    19    10    11   ar
    20    10    40    1
    21    11    12   ar
    22    11    41    1
    23    12    13    1
    24    13    14   ar
    25    13    30   ar
    26    14    15   ar
    27    14    27   ar
    28    15    16   ar
    29    16    17   ar
    30    16    42    1
    31    17    18   ar
    32    17    43    1
    33    18    19    1
    34    18    27   ar
    35    19    20   ar
    36    19    25   ar
    37    20    21   ar
    38    20    44    1
    39    21    22   ar
    40    21    45    1
    41    22    23    1
    42    22    24   ar
    43    24    25   ar
    44    24    46    1
    45    25    26    1
    46    27    28   ar
    47    28    29   ar
    48    28    47    1
    49    29    30   ar
    50    29    48    1
    51    30    31    1
@<TRIPOS>MOLECULE
AD3CC01251705-I00-C00
 56 58 0 0 0
SMALL
GASTEIGER

@<TRIPOS>ATOM
      1 C           1.3730   -3.3260    4.1330 C.3     1  UNL1       -0.0556
      2 C           0.7950   -3.5040    2.7160 C.3     1  UNL1       -0.0064
      3 C          -0.5850   -4.1820    2.8530 C.3     1  UNL1       -0.0556
      4 C           1.7000   -4.4550    1.9050 C.3     1  UNL1       -0.0556
      5 C           0.6750   -2.1460    2.0130 C.ar    1  UNL1       -0.0023
      6 C          -0.4590   -1.4800    1.5780 C.ar    1  UNL1       -0.0370
      7 C          -0.1890   -0.2080    0.9560 C.ar    1  UNL1        0.0657
      8 C          -1.2140    0.7410    0.5270 C.2     1  UNL1        0.2490
      9 O          -1.2650    1.8610    1.0340 O.2     1  UNL1       -0.2699
     10 N          -2.1780    0.2760   -0.3830 N.am    1  UNL1       -0.2955
     11 C          -3.2640    1.2000   -0.7230 C.3     1  UNL1        0.0305
     12 C          -4.6190    0.5130   -0.9120 C.3     1  UNL1        0.0274
     13 N          -4.7210   -0.2700   -2.1300 N.am    1  UNL1       -0.3138
     14 C          -4.0360   -1.4130   -2.4120 C.2     1  UNL1        0.2146
     15 O          -4.3390   -2.0770   -3.4000 O.2     1  UNL1       -0.2758
     16 C          -2.9290   -1.8280   -1.4780 C.3     1  UNL1        0.0397
     17 C          -1.8580   -0.7550   -1.3810 C.3     1  UNL1        0.0233
     18 C           1.1680    0.0230    0.9190 C.ar    1  UNL1        0.0853
     19 N           1.9560    1.0320    0.4080 N.am    1  UNL1       -0.2629
     20 C           1.5920    1.7580   -0.7150 C.2     1  UNL1        0.3085
     21 O           0.6630    1.4690   -1.4580 O.2     1  UNL1       -0.2521
     22 N           2.4550    2.8250   -0.8890 N.am    1  UNL1       -0.2679
     23 C           2.4820    3.7590   -1.9510 C.ar    1  UNL1        0.0532
     24 C           1.7400    3.6030   -3.1250 C.ar    1  UNL1       -0.0378
     25 C           1.8120    4.5600   -4.1460 C.ar    1  UNL1       -0.0425
     26 C           2.6310    5.6830   -4.0080 C.ar    1  UNL1        0.0533
     27 C           2.7010    6.6590   -5.0560 C.1     1  UNL1        0.0992
     28 N           2.7620    7.4490   -5.9030 N.1     1  UNL1       -0.1909
     29 C           3.3850    5.8480   -2.8450 C.ar    1  UNL1       -0.0242
     30 C           3.3100    4.8910   -1.8280 C.ar    1  UNL1        0.0634
     31 CL          4.2710    5.1400   -0.4090 Cl      1  UNL1       -0.0816
     32 S           2.0710   -1.1890    1.6910 S.2     1  UNL1       -0.0771
     33 H           0.7650   -2.6310    4.7250 H       1  UNL1        0.0238
     34 H           2.3960   -2.9340    4.1130 H       1  UNL1        0.0238
     35 H           1.4050   -4.2820    4.6700 H       1  UNL1        0.0238
     36 H          -0.5000   -5.1580    3.3460 H       1  UNL1        0.0238
     37 H          -1.0510   -4.3490    1.8750 H       1  UNL1        0.0238
     38 H          -1.2740   -3.5750    3.4530 H       1  UNL1        0.0238
     39 H           2.7310   -4.0900    1.8470 H       1  UNL1        0.0238
     40 H           1.3330   -4.5720    0.8790 H       1  UNL1        0.0238
     41 H           1.7370   -5.4500    2.3630 H       1  UNL1        0.0238
     42 H          -1.4650   -1.8580    1.7160 H       1  UNL1        0.0634
     43 H          -2.9680    1.7470   -1.6260 H       1  UNL1        0.0480
     44 H          -3.3810    1.9370    0.0790 H       1  UNL1        0.0480
     45 H          -4.8420   -0.1450   -0.0650 H       1  UNL1        0.0477
     46 H          -5.4050    1.2730   -0.9700 H       1  UNL1        0.0477
     47 H          -5.4820   -0.0810   -2.7720 H       1  UNL1        0.1487
     48 H          -2.4830   -2.7370   -1.8980 H       1  UNL1        0.0374
     49 H          -3.3480   -2.0910   -0.5010 H       1  UNL1        0.0374
     50 H          -0.9060   -1.2370   -1.1480 H       1  UNL1        0.0469
     51 H          -1.7060   -0.2460   -2.3420 H       1  UNL1        0.0469
     52 H           2.9450    0.9500    0.5940 H       1  UNL1        0.1569
     53 H           3.0000    3.0810   -0.0750 H       1  UNL1        0.1564
     54 H           1.0960    2.7430   -3.2830 H       1  UNL1        0.0637
     55 H           1.2190    4.4140   -5.0490 H       1  UNL1        0.0631
     56 H           4.0290    6.7170   -2.7280 H       1  UNL1        0.0645
@<TRIPOS>BOND
     1     2     1    1
     2     1    33    1
     3     1    34    1
     4     1    35    1
     5     2     3    1
     6     2     4    1
     7     2     5    1
     8     3    36    1
     9     3    37    1
    10     3    38    1
    11     4    39    1
    12     4    40    1
    13     4    41    1
    14     5     6   ar
    15     5    32   ar
    16     6     7   ar
    17     6    42    1
    18     7     8    1
    19     7    18   ar
    20     8     9    2
    21     8    10   am
    22    10    11    1
    23    10    17    1
    24    11    12    1
    25    11    43    1
    26    11    44    1
    27    12    13    1
    28    12    45    1
    29    12    46    1
    30    13    14   am
    31    13    47    1
    32    14    15    2
    33    14    16    1
    34    16    17    1
    35    16    48    1
    36    16    49    1
    37    17    50    1
    38    17    51    1
    39    18    19    1
    40    18    32   ar
    41    19    20   am
    42    19    52    1
    43    20    21    2
    44    20    22   am
    45    22    23    1
    46    22    53    1
    47    23    24   ar
    48    23    30   ar
    49    24    25   ar
    50    24    54    1
    51    25    26   ar
    52    25    55    1
    53    26    27    1
    54    26    29   ar
    55    27    28    3
    56    29    30   ar
    57    29    56    1
    58    30    31    1
@<TRIPOS>MOLECULE
AD3CC01251708-I00-C01
 58 60 0 0 0
SMALL
GASTEIGER

@<TRIPOS>ATOM
      1 C           4.0190   -3.3990    0.0770 C.3     1  UNL1        0.0032
      2 N           2.6950   -3.0070   -0.3780 N.am    1  UNL1       -0.3030
      3 C           2.1380   -1.7720    0.1800 C.3     1  UNL1        0.0302
      4 C           0.8480   -2.0020    0.9800 C.3     1  UNL1        0.0308
      5 N          -0.3210   -2.2150    0.1240 N.am    1  UNL1       -0.2955
      6 C          -1.3970   -1.3250   -0.0110 C.2     1  UNL1        0.2490
      7 O          -2.3570   -1.5520   -0.7440 O.2     1  UNL1       -0.2699
      8 C          -1.4340   -0.1740    0.8860 C.ar    1  UNL1        0.0657
      9 C          -2.2410   -0.1820    2.0830 C.ar    1  UNL1       -0.0370
     10 C          -2.1630    0.9780    2.8310 C.ar    1  UNL1       -0.0023
     11 C          -2.8640    1.3340    4.1490 C.3     1  UNL1       -0.0064
     12 C          -1.8250    1.6380    5.2480 C.3     1  UNL1       -0.0556
     13 C          -3.7410    0.1640    4.6470 C.3     1  UNL1       -0.0556
     14 C          -3.7840    2.5570    3.9550 C.3     1  UNL1       -0.0556
     15 S          -1.1080    2.0910    2.0580 S.2     1  UNL1       -0.0771
     16 C          -0.8000    1.0440    0.7460 C.ar    1  UNL1        0.0853
     17 N           0.0370    1.6560   -0.1620 N.am    1  UNL1       -0.2629
     18 C           0.3630    1.1740   -1.4130 C.2     1  UNL1        0.3085
     19 O          -0.0620    0.1340   -1.8940 O.2     1  UNL1       -0.2521
     20 N           1.2760    2.0110   -2.0330 N.am    1  UNL1       -0.2678
     21 C           1.8440    1.8790   -3.3270 C.ar    1  UNL1        0.0546
     22 C           1.4080    0.9270   -4.2560 C.ar    1  UNL1       -0.0389
     23 C           2.0020    0.8360   -5.5180 C.ar    1  UNL1       -0.0585
     24 C           3.0370    1.6990   -5.8700 C.ar    1  UNL1       -0.0419
     25 C           3.4810    2.6620   -4.9610 C.ar    1  UNL1        0.0610
     26 CL          4.7690    3.7010   -5.4660 Cl      1  UNL1       -0.0820
     27 C           2.8880    2.7580   -3.6930 C.ar    1  UNL1        0.0804
     28 CL          3.4290    3.9500   -2.5430 Cl      1  UNL1       -0.0801
     29 C          -0.2900   -3.3980   -0.7370 C.3     1  UNL1        0.0233
     30 C           0.7240   -3.2750   -1.8640 C.3     1  UNL1        0.0399
     31 C           2.1000   -3.7140   -1.4130 C.2     1  UNL1        0.2169
     32 O           2.6490   -4.6710   -1.9610 O.2     1  UNL1       -0.2756
     33 H           4.0150   -3.4520    1.1700 H       1  UNL1        0.0428
     34 H           4.3200   -4.3720   -0.3190 H       1  UNL1        0.0428
     35 H           4.7390   -2.6440   -0.2510 H       1  UNL1        0.0428
     36 H           1.9780   -1.0690   -0.6420 H       1  UNL1        0.0480
     37 H           2.8890   -1.3310    0.8460 H       1  UNL1        0.0480
     38 H           0.6930   -1.1470    1.6410 H       1  UNL1        0.0480
     39 H           0.9480   -2.8830    1.6250 H       1  UNL1        0.0480
     40 H          -2.8520   -1.0350    2.3590 H       1  UNL1        0.0634
     41 H          -2.3140    1.8280    6.2110 H       1  UNL1        0.0238
     42 H          -1.2240    2.5230    5.0120 H       1  UNL1        0.0238
     43 H          -1.1350    0.7970    5.3840 H       1  UNL1        0.0238
     44 H          -4.2390    0.4160    5.5910 H       1  UNL1        0.0238
     45 H          -4.5250   -0.0890    3.9230 H       1  UNL1        0.0238
     46 H          -3.1440   -0.7390    4.8240 H       1  UNL1        0.0238
     47 H          -3.2180    3.4580    3.6910 H       1  UNL1        0.0238
     48 H          -4.3380    2.7820    4.8740 H       1  UNL1        0.0238
     49 H          -4.5160    2.3800    3.1580 H       1  UNL1        0.0238
     50 H           0.2650    2.6150    0.0560 H       1  UNL1        0.1569
     51 H           1.6800    2.7480   -1.4690 H       1  UNL1        0.1564
     52 H           0.5950    0.2400   -4.0350 H       1  UNL1        0.0637
     53 H           1.6500    0.0870   -6.2260 H       1  UNL1        0.0619
     54 H           3.4910    1.6160   -6.8550 H       1  UNL1        0.0633
     55 H          -0.0840   -4.2680   -0.1020 H       1  UNL1        0.0469
     56 H          -1.2800   -3.5600   -1.1760 H       1  UNL1        0.0469
     57 H           0.7760   -2.2700   -2.2910 H       1  UNL1        0.0374
     58 H           0.4280   -3.9510   -2.6760 H       1  UNL1        0.0374
@<TRIPOS>BOND
     1     1     2    1
     2     1    33    1
     3     1    34    1
     4     1    35    1
     5     2     3    1
     6     2    31   am
     7     3     4    1
     8     3    36    1
     9     3    37    1
    10     4     5    1
    11     4    38    1
    12     4    39    1
    13     5     6   am
    14     5    29    1
    15     6     7    2
    16     6     8    1
    17     8     9   ar
    18     8    16   ar
    19     9    10   ar
    20     9    40    1
    21    10    11    1
    22    10    15   ar
    23    11    12    1
    24    11    13    1
    25    11    14    1
    26    12    41    1
    27    12    42    1
    28    12    43    1
    29    13    44    1
    30    13    45    1
    31    13    46    1
    32    14    47    1
    33    14    48    1
    34    14    49    1
    35    15    16   ar
    36    16    17    1
    37    17    18   am
    38    17    50    1
    39    18    19    2
    40    18    20   am
    41    20    21    1
    42    20    51    1
    43    21    22   ar
    44    21    27   ar
    45    22    23   ar
    46    22    52    1
    47    23    24   ar
    48    23    53    1
    49    24    25   ar
    50    24    54    1
    51    25    26    1
    52    25    27   ar
    53    27    28    1
    54    29    30    1
    55    29    55    1
    56    29    56    1
    57    30    31    1
    58    30    57    1
    59    30    58    1
    60    31    32    2
@<TRIPOS>MOLECULE
AD3CC01259045-I00-C00
 56 59 0 0 0
SMALL
GASTEIGER

@<TRIPOS>ATOM
      1 C           3.5350    2.3670   -3.3240 C.3     1  UNL1       -0.0469
      2 C           2.3860    2.0210   -2.3750 C.3     1  UNL1        0.0177
      3 C           1.2020    2.9540   -2.6280 C.3     1  UNL1       -0.0469
      4 N           2.8780    2.1520   -1.0070 N.pl3   1  UNL1       -0.3111
      5 C           2.0850    1.6200   -0.0020 C.ar    1  UNL1        0.2173
      6 N           2.1630    2.2610    1.1820 N.ar    1  UNL1       -0.2207
      7 C           1.4040    1.8250    2.2230 C.ar    1  UNL1        0.0602
      8 C           0.5560    0.7420    2.0430 C.ar    1  UNL1        0.1280
      9 N          -0.3440    0.1080    2.8600 N.ar    1  UNL1       -0.2110
     10 C          -0.8530   -0.8600    2.1260 C.ar    1  UNL1        0.2025
     11 N          -1.8490   -1.6940    2.5090 N.pl3   1  UNL1       -0.2804
     12 C          -1.6020   -3.0070    3.0220 C.ar    1  UNL1        0.1049
     13 C          -2.6470   -3.6540    3.7080 C.ar    1  UNL1        0.1500
     14 F          -3.7950   -2.9930    3.9220 F       1  UNL1       -0.2034
     15 C          -2.5310   -4.9550    4.1860 C.ar    1  UNL1        0.0108
     16 C          -1.3490   -5.6450    3.9640 C.ar    1  UNL1        0.1290
     17 F          -1.2230   -6.8990    4.4150 F       1  UNL1       -0.2053
     18 C          -0.2990   -5.0580    3.2730 C.ar    1  UNL1        0.0108
     19 C          -0.4350   -3.7530    2.8000 C.ar    1  UNL1        0.1500
     20 F           0.6010   -3.2340    2.1260 F       1  UNL1       -0.2034
     21 N          -0.3500   -0.8430    0.8380 N.ar    1  UNL1       -0.2933
     22 C          -0.7970   -1.6410   -0.2980 C.3     1  UNL1        0.0391
     23 C          -1.6050   -0.7950   -1.2950 C.3     1  UNL1       -0.0313
     24 C          -2.0840   -1.6160   -2.4940 C.3     1  UNL1       -0.0401
     25 C          -0.9590   -2.3980   -3.1870 C.3     1  UNL1        0.0355
     26 C          -0.0580   -1.4890   -4.0270 C.2     1  UNL1        0.2136
     27 N           0.9200   -2.1290   -4.7320 N.am    1  UNL1       -0.3291
     28 O          -0.1850   -0.2740   -4.1200 O.2     1  UNL1       -0.2757
     29 C          -0.1700   -3.2320   -2.1690 C.3     1  UNL1       -0.0401
     30 C           0.3470   -2.3930   -1.0010 C.3     1  UNL1       -0.0313
     31 C           0.5720    0.1710    0.7870 C.ar    1  UNL1        0.1670
     32 N           1.3080    0.5590   -0.2630 N.ar    1  UNL1       -0.1948
     33 H           3.2240    2.2640   -4.3690 H       1  UNL1        0.0247
     34 H           3.8850    3.3940   -3.1720 H       1  UNL1        0.0247
     35 H           4.3890    1.7000   -3.1590 H       1  UNL1        0.0247
     36 H           2.0910    0.9860   -2.5900 H       1  UNL1        0.0493
     37 H           1.4640    3.9970   -2.4170 H       1  UNL1        0.0247
     38 H           0.3470    2.6950   -1.9950 H       1  UNL1        0.0247
     39 H           0.8730    2.8900   -3.6700 H       1  UNL1        0.0247
     40 H           3.1330    3.0880   -0.7120 H       1  UNL1        0.1492
     41 H           1.4870    2.3640    3.1570 H       1  UNL1        0.0853
     42 H          -2.4640   -1.2440    3.1940 H       1  UNL1        0.1551
     43 H          -3.3510   -5.4210    4.7200 H       1  UNL1        0.0676
     44 H           0.6190   -5.6080    3.0990 H       1  UNL1        0.0676
     45 H          -1.4760   -2.4030    0.1020 H       1  UNL1        0.0529
     46 H          -1.0070    0.0520   -1.6530 H       1  UNL1        0.0285
     47 H          -2.4750   -0.3570   -0.7900 H       1  UNL1        0.0285
     48 H          -2.8430   -2.3290   -2.1450 H       1  UNL1        0.0273
     49 H          -2.5880   -0.9530   -3.2080 H       1  UNL1        0.0273
     50 H          -1.4290   -3.0850   -3.9040 H       1  UNL1        0.0394
     51 H           0.9360   -3.1300   -4.8590 H       1  UNL1        0.1449
     52 H           1.4820   -1.5600   -5.3520 H       1  UNL1        0.1449
     53 H          -0.8230   -4.0210   -1.7750 H       1  UNL1        0.0273
     54 H           0.6760   -3.7420   -2.6430 H       1  UNL1        0.0273
     55 H           0.8610   -3.0470   -0.2880 H       1  UNL1        0.0285
     56 H           1.1040   -1.6980   -1.3790 H       1  UNL1        0.0285
@<TRIPOS>BOND
     1     1     2    1
     2     1    33    1
     3     1    34    1
     4     1    35    1
     5     2     3    1
     6     2     4    1
     7     2    36    1
     8     3    37    1
     9     3    38    1
    10     3    39    1
    11     4     5    1
    12     4    40    1
    13     5     6   ar
    14     5    32   ar
    15     6     7   ar
    16     7     8   ar
    17     7    41    1
    18     8     9   ar
    19     8    31   ar
    20     9    10   ar
    21    10    11    1
    22    10    21   ar
    23    11    12    1
    24    11    42    1
    25    12    13   ar
    26    12    19   ar
    27    13    14    1
    28    13    15   ar
    29    15    16   ar
    30    15    43    1
    31    16    17    1
    32    16    18   ar
    33    18    19   ar
    34    18    44    1
    35    19    20    1
    36    21    22    1
    37    21    31   ar
    38    22    23    1
    39    22    30    1
    40    22    45    1
    41    23    24    1
    42    23    46    1
    43    23    47    1
    44    24    25    1
    45    24    48    1
    46    24    49    1
    47    25    26    1
    48    25    29    1
    49    25    50    1
    50    26    27   am
    51    26    28    2
    52    27    51    1
    53    27    52    1
    54    29    30    1
    55    29    53    1
    56    29    54    1
    57    30    55    1
    58    30    56    1
    59    31    32   ar
@<TRIPOS>MOLECULE
AD3CC01259055-I00-C00
 61 65 0 0 0
SMALL
GASTEIGER

@<TRIPOS>ATOM
      1 C           4.6260    6.2750    1.6660 C.3     1  UNL1       -0.0361
      2 C           3.8290    5.2550    2.4810 C.3     1  UNL1        0.0635
      3 O           3.9690    5.5930    3.8650 O.3     1  UNL1       -0.3888
      4 C           4.4020    3.8450    2.2860 C.3     1  UNL1       -0.0226
      5 C           3.5810    2.7810    3.0210 C.3     1  UNL1       -0.0319
      6 C           2.0870    2.8200    2.6550 C.3     1  UNL1        0.0235
      7 N           1.9240    2.3890    1.2660 N.pl3   1  UNL1       -0.3106
      8 C           0.7530    1.7070    0.9620 C.ar    1  UNL1        0.2174
      9 N          -0.3880    1.9950    1.6210 N.ar    1  UNL1       -0.2207
     10 C          -1.5260    1.3250    1.3080 C.ar    1  UNL1        0.0602
     11 C          -1.4910    0.3550    0.3190 C.ar    1  UNL1        0.1280
     12 N          -2.4390   -0.4770   -0.2070 N.ar    1  UNL1       -0.2110
     13 C          -1.8250   -1.2080   -1.1190 C.ar    1  UNL1        0.2024
     14 N          -2.3400   -2.2060   -1.8740 N.pl3   1  UNL1       -0.2826
     15 C          -3.6740   -2.6790   -1.9140 C.ar    1  UNL1        0.0693
     16 C          -4.7520   -2.0780   -1.2550 C.ar    1  UNL1       -0.0350
     17 C          -6.0420   -2.6130   -1.3570 C.ar    1  UNL1       -0.0245
     18 C          -6.2620   -3.7520   -2.1230 C.ar    1  UNL1        0.1262
     19 F          -7.5000   -4.2560   -2.2160 F       1  UNL1       -0.2054
     20 C          -5.2210   -4.3700   -2.7940 C.ar    1  UNL1        0.0106
     21 C          -3.9450   -3.8280   -2.6830 C.ar    1  UNL1        0.1472
     22 F          -2.9330   -4.4250   -3.3350 F       1  UNL1       -0.2035
     23 N          -0.4920   -0.8280   -1.2230 N.ar    1  UNL1       -0.2931
     24 C           0.5140   -1.3300   -2.1510 C.3     1  UNL1        0.0432
     25 C           1.1270   -0.2380   -3.0340 C.3     1  UNL1       -0.0083
     26 C           2.0860   -0.8530   -4.0510 C.3     1  UNL1        0.0495
     27 O           2.6170   -2.1100   -3.6260 O.3     1  UNL1       -0.3796
     28 C           2.9070   -2.1390   -2.2320 C.3     1  UNL1        0.0495
     29 C           1.6040   -2.1510   -1.4430 C.3     1  UNL1       -0.0083
     30 C          -0.2690    0.1500   -0.2840 C.ar    1  UNL1        0.1670
     31 N           0.8840    0.7820   -0.0040 N.ar    1  UNL1       -0.1948
     32 C           1.5270    4.2370    2.8490 C.3     1  UNL1       -0.0319
     33 C           2.3410    5.3030    2.1090 C.3     1  UNL1       -0.0226
     34 H           4.5770    6.0620    0.5940 H       1  UNL1        0.0257
     35 H           4.2490    7.2900    1.8340 H       1  UNL1        0.0257
     36 H           5.6780    6.2810    1.9720 H       1  UNL1        0.0257
     37 H           3.6210    6.4930    3.9900 H       1  UNL1        0.2101
     38 H           5.4300    3.8030    2.6660 H       1  UNL1        0.0293
     39 H           4.4440    3.6010    1.2170 H       1  UNL1        0.0293
     40 H           3.9990    1.7900    2.8020 H       1  UNL1        0.0284
     41 H           3.6860    2.9300    4.1030 H       1  UNL1        0.0284
     42 H           1.5720    2.1270    3.3340 H       1  UNL1        0.0498
     43 H           2.6690    1.8070    0.8990 H       1  UNL1        0.1492
     44 H          -2.4220    1.5820    1.8570 H       1  UNL1        0.0853
     45 H          -1.7380   -2.8090   -2.4280 H       1  UNL1        0.1551
     46 H          -4.6170   -1.1830   -0.6550 H       1  UNL1        0.0638
     47 H          -6.8740   -2.1420   -0.8420 H       1  UNL1        0.0647
     48 H          -5.3960   -5.2560   -3.3920 H       1  UNL1        0.0675
     49 H          -0.0000   -2.0080   -2.8410 H       1  UNL1        0.0531
     50 H           0.3570    0.3490   -3.5480 H       1  UNL1        0.0307
     51 H           1.6910    0.4770   -2.4220 H       1  UNL1        0.0307
     52 H           1.5630   -1.0340   -4.9960 H       1  UNL1        0.0560
     53 H           2.9140   -0.1690   -4.2650 H       1  UNL1        0.0560
     54 H           3.5320   -1.2790   -1.9660 H       1  UNL1        0.0560
     55 H           3.4850   -3.0430   -2.0160 H       1  UNL1        0.0560
     56 H           1.2430   -3.1840   -1.3500 H       1  UNL1        0.0307
     57 H           1.8020   -1.8120   -0.4200 H       1  UNL1        0.0307
     58 H           0.4840    4.2980    2.5170 H       1  UNL1        0.0284
     59 H           1.5210    4.4710    3.9210 H       1  UNL1        0.0284
     60 H           2.2190    5.1690    1.0270 H       1  UNL1        0.0293
     61 H           1.9220    6.2850    2.3600 H       1  UNL1        0.0293
@<TRIPOS>BOND
     1     1     2    1
     2     1    34    1
     3     1    35    1
     4     1    36    1
     5     2     3    1
     6     2     4    1
     7     2    33    1
     8     3    37    1
     9     4     5    1
    10     4    38    1
    11     4    39    1
    12     5     6    1
    13     5    40    1
    14     5    41    1
    15     6     7    1
    16     6    32    1
    17     6    42    1
    18     7     8    1
    19     7    43    1
    20     8     9   ar
    21     8    31   ar
    22     9    10   ar
    23    10    11   ar
    24    10    44    1
    25    11    12   ar
    26    11    30   ar
    27    12    13   ar
    28    13    14    1
    29    13    23   ar
    30    14    15    1
    31    14    45    1
    32    15    16   ar
    33    15    21   ar
    34    16    17   ar
    35    16    46    1
    36    17    18   ar
    37    17    47    1
    38    18    19    1
    39    18    20   ar
    40    20    21   ar
    41    20    48    1
    42    21    22    1
    43    23    24    1
    44    23    30   ar
    45    24    25    1
    46    24    29    1
    47    24    49    1
    48    25    26    1
    49    25    50    1
    50    25    51    1
    51    26    27    1
    52    26    52    1
    53    26    53    1
    54    27    28    1
    55    28    29    1
    56    28    54    1
    57    28    55    1
    58    29    56    1
    59    29    57    1
    60    30    31   ar
    61    32    33    1
    62    32    58    1
    63    32    59    1
    64    33    60    1
    65    33    61    1
@<TRIPOS>MOLECULE
AD3CC01315581-I00-C00
 64 68 0 0 0
SMALL
GASTEIGER

@<TRIPOS>ATOM
      1 C          -2.2700   -3.6390    1.2560 C.3     1  UNL1       -0.0377
      2 C          -1.7490   -2.4890    2.0740 C.ar    1  UNL1       -0.0264
      3 C          -1.6370   -2.6760    3.4610 C.ar    1  UNL1       -0.0551
      4 C          -1.0810   -1.6910    4.2830 C.ar    1  UNL1       -0.0401
      5 C          -0.6170   -0.4970    3.7380 C.ar    1  UNL1        0.0356
      6 N          -0.0050    0.5280    4.4890 N.am    1  UNL1       -0.2814
      7 C           0.1390    0.5900    5.8630 C.2     1  UNL1        0.2483
      8 O          -0.3270   -0.1890    6.6860 O.2     1  UNL1       -0.2699
      9 C           0.9090    1.7670    6.3570 C.ar    1  UNL1        0.0370
     10 C           0.5230    2.3580    7.5660 C.ar    1  UNL1       -0.0496
     11 C           1.2200    3.4630    8.0590 C.ar    1  UNL1       -0.0610
     12 C           2.3090    3.9720    7.3520 C.ar    1  UNL1       -0.0617
     13 C           2.7100    3.3740    6.1570 C.ar    1  UNL1       -0.0610
     14 C           2.0150    2.2690    5.6590 C.ar    1  UNL1       -0.0496
     15 C          -0.7430   -0.2930    2.3590 C.ar    1  UNL1       -0.0162
     16 C          -1.3330   -1.2620    1.5250 C.ar    1  UNL1        0.0558
     17 N          -1.4730   -0.9680    0.1340 N.ar    1  UNL1       -0.2643
     18 C          -2.7170   -0.8660   -0.4700 C.ar    1  UNL1        0.1144
     19 C          -3.9780   -0.9120    0.3700 C.3     1  UNL1       -0.0058
     20 N          -2.8850   -0.6960   -1.7450 N.ar    1  UNL1       -0.2334
     21 C          -1.7570   -0.5730   -2.5590 C.ar    1  UNL1        0.0783
     22 C          -1.9280   -0.4190   -3.9320 C.ar    1  UNL1       -0.0338
     23 C          -0.8220   -0.2650   -4.7790 C.ar    1  UNL1       -0.0386
     24 C           0.4900   -0.2670   -4.2830 C.ar    1  UNL1        0.0306
     25 N           1.6240   -0.1000   -5.0910 N.pl3   1  UNL1       -0.3274
     26 C           2.5970   -1.2200   -5.0110 C.3     1  UNL1        0.0250
     27 C           3.9280   -0.8410   -5.7020 C.3     1  UNL1        0.0144
     28 N           3.7460   -0.4020   -7.1030 N.3     1  UNL1       -0.3024
     29 C           5.0250   -0.0070   -7.6900 C.3     1  UNL1       -0.0126
     30 C           2.7900    0.7260   -7.1300 C.3     1  UNL1        0.0144
     31 C           1.4320    0.3660   -6.4820 C.3     1  UNL1        0.0250
     32 C           0.6420   -0.4060   -2.8950 C.ar    1  UNL1       -0.0263
     33 C          -0.4670   -0.5630   -2.0500 C.ar    1  UNL1        0.0670
     34 C          -0.3010   -0.7340   -0.5960 C.ar    1  UNL1        0.2663
     35 O           0.8340   -0.6780   -0.1240 O.2     1  UNL1       -0.2666
     36 H          -2.0560   -3.5240    0.1900 H       1  UNL1        0.0278
     37 H          -3.3500   -3.7420    1.3920 H       1  UNL1        0.0278
     38 H          -1.7890   -4.5720    1.5700 H       1  UNL1        0.0278
     39 H          -1.9600   -3.6110    3.9160 H       1  UNL1        0.0621
     40 H          -1.0010   -1.9010    5.3450 H       1  UNL1        0.0636
     41 H           0.3170    1.3270    3.9580 H       1  UNL1        0.1551
     42 H          -0.3210    1.9590    8.1250 H       1  UNL1        0.0625
     43 H           0.9160    3.9210    8.9970 H       1  UNL1        0.0618
     44 H           2.8540    4.8290    7.7400 H       1  UNL1        0.0618
     45 H           3.5720    3.7620    5.6190 H       1  UNL1        0.0618
     46 H           2.3670    1.7940    4.7470 H       1  UNL1        0.0625
     47 H          -0.3920    0.6360    1.9160 H       1  UNL1        0.0657
     48 H          -3.8150   -0.6050    1.4040 H       1  UNL1        0.0308
     49 H          -4.3980   -1.9210    0.3410 H       1  UNL1        0.0308
     50 H          -4.7200   -0.2300   -0.0610 H       1  UNL1        0.0308
     51 H          -2.9320   -0.4160   -4.3500 H       1  UNL1        0.0639
     52 H          -1.0210   -0.1580   -5.8420 H       1  UNL1        0.0637
     53 H           2.8290   -1.4840   -3.9730 H       1  UNL1        0.0476
     54 H           2.1720   -2.1100   -5.4920 H       1  UNL1        0.0476
     55 H           4.4150   -0.0480   -5.1180 H       1  UNL1        0.0442
     56 H           4.5870   -1.7170   -5.6780 H       1  UNL1        0.0442
     57 H           5.4920    0.8250   -7.1500 H       1  UNL1        0.0391
     58 H           4.8910    0.2920   -8.7350 H       1  UNL1        0.0391
     59 H           5.7230   -0.8520   -7.6910 H       1  UNL1        0.0391
     60 H           3.2120    1.5960   -6.6100 H       1  UNL1        0.0442
     61 H           2.6040    1.0230   -8.1690 H       1  UNL1        0.0442
     62 H           0.8040    1.2650   -6.4980 H       1  UNL1        0.0476
     63 H           0.9430   -0.4130   -7.0820 H       1  UNL1        0.0476
     64 H           1.6360   -0.3700   -2.4540 H       1  UNL1        0.0644
@<TRIPOS>BOND
     1     1     2    1
     2     1    36    1
     3     1    37    1
     4     1    38    1
     5     2     3   ar
     6     2    16   ar
     7     3     4   ar
     8     3    39    1
     9     4     5   ar
    10     4    40    1
    11     5     6    1
    12     5    15   ar
    13     6     7   am
    14     6    41    1
    15     7     8    2
    16     7     9    1
    17     9    10   ar
    18     9    14   ar
    19    10    11   ar
    20    10    42    1
    21    11    12   ar
    22    11    43    1
    23    12    13   ar
    24    12    44    1
    25    13    14   ar
    26    13    45    1
    27    14    46    1
    28    15    16   ar
    29    15    47    1
    30    16    17    1
    31    17    18   ar
    32    17    34   ar
    33    18    19    1
    34    18    20   ar
    35    19    48    1
    36    19    49    1
    37    19    50    1
    38    20    21   ar
    39    21    22   ar
    40    21    33   ar
    41    22    23   ar
    42    22    51    1
    43    23    24   ar
    44    23    52    1
    45    24    25    1
    46    24    32   ar
    47    25    26    1
    48    25    31    1
    49    26    27    1
    50    26    53    1
    51    26    54    1
    52    27    28    1
    53    27    55    1
    54    27    56    1
    55    28    29    1
    56    28    30    1
    57    29    57    1
    58    29    58    1
    59    29    59    1
    60    30    31    1
    61    30    60    1
    62    30    61    1
    63    31    62    1
    64    31    63    1
    65    32    33   ar
    66    32    64    1
    67    33    34   ar
    68    34    35    2
@<TRIPOS>MOLECULE
AD3CC01315582-I00-C00
 65 69 0 0 0
SMALL
GASTEIGER

@<TRIPOS>ATOM
      1 C           4.1480    1.8990    0.7980 C.3     1  UNL1        0.0788
      2 O           4.4430    0.9500   -0.2220 O.3     1  UNL1       -0.4944
      3 C           5.7580    0.6090   -0.4230 C.ar    1  UNL1        0.1322
      4 C           6.8250    1.3010    0.1730 C.ar    1  UNL1       -0.0192
      5 C           8.1480    0.9220   -0.0630 C.ar    1  UNL1       -0.0583
      6 C           8.4260   -0.1510   -0.8990 C.ar    1  UNL1       -0.0608
      7 C           7.3790   -0.8450   -1.5030 C.ar    1  UNL1       -0.0461
      8 C           6.0360   -0.4790   -1.2810 C.ar    1  UNL1        0.0786
      9 C           4.9960   -1.3090   -1.9930 C.2     1  UNL1        0.2518
     10 O           5.3700   -2.2790   -2.6470 O.2     1  UNL1       -0.2697
     11 N           3.6840   -0.9010   -1.8610 N.am    1  UNL1       -0.2813
     12 C           2.5230   -1.4910   -2.3960 C.ar    1  UNL1        0.0356
     13 C           2.5180   -2.6450   -3.1690 C.ar    1  UNL1       -0.0401
     14 C           1.3120   -3.1730   -3.6380 C.ar    1  UNL1       -0.0551
     15 C           0.0820   -2.5580   -3.3480 C.ar    1  UNL1       -0.0264
     16 C          -1.1640   -3.2670   -3.8100 C.3     1  UNL1       -0.0377
     17 C           0.0770   -1.3540   -2.6100 C.ar    1  UNL1        0.0555
     18 N          -1.1230   -0.6080   -2.3570 N.ar    1  UNL1       -0.2667
     19 C          -1.9950   -0.3540   -3.3960 C.ar    1  UNL1        0.1039
     20 N          -3.1060    0.3010   -3.3090 N.ar    1  UNL1       -0.2366
     21 C          -3.4540    0.8140   -2.0570 C.ar    1  UNL1        0.0780
     22 C          -4.6490    1.5110   -1.9200 C.ar    1  UNL1       -0.0338
     23 C          -5.0200    2.0480   -0.6800 C.ar    1  UNL1       -0.0386
     24 C          -4.2250    1.9010    0.4700 C.ar    1  UNL1        0.0306
     25 N          -4.6320    2.4630    1.6800 N.pl3   1  UNL1       -0.3274
     26 C          -6.0170    2.1720    2.1290 C.3     1  UNL1        0.0250
     27 C          -6.0560    0.8930    3.0000 C.3     1  UNL1        0.0144
     28 N          -5.1550    0.9770    4.1720 N.3     1  UNL1       -0.3024
     29 C          -5.1860   -0.2670    4.9380 C.3     1  UNL1       -0.0126
     30 C          -3.7780    1.2770    3.7170 C.3     1  UNL1        0.0144
     31 C          -3.7060    2.5460    2.8330 C.3     1  UNL1        0.0250
     32 C          -3.0120    1.2200    0.3030 C.ar    1  UNL1       -0.0263
     33 C          -2.6390    0.6790   -0.9410 C.ar    1  UNL1        0.0670
     34 C          -1.3680   -0.0610   -1.0930 C.ar    1  UNL1        0.2661
     35 O          -0.6370   -0.1660   -0.1080 O.2     1  UNL1       -0.2666
     36 C           1.3030   -0.8570   -2.1240 C.ar    1  UNL1       -0.0162
     37 H           4.5450    1.5790    1.7670 H       1  UNL1        0.0660
     38 H           3.0590    1.9610    0.8890 H       1  UNL1        0.0660
     39 H           4.5160    2.8930    0.5250 H       1  UNL1        0.0660
     40 H           6.6620    2.1520    0.8270 H       1  UNL1        0.0654
     41 H           8.9630    1.4680    0.4070 H       1  UNL1        0.0619
     42 H           9.4550   -0.4510   -1.0860 H       1  UNL1        0.0618
     43 H           7.6160   -1.6830   -2.1580 H       1  UNL1        0.0626
     44 H           3.5400   -0.0770   -1.2850 H       1  UNL1        0.1551
     45 H           3.4350   -3.1730   -3.4130 H       1  UNL1        0.0636
     46 H           1.3430   -4.0950   -4.2170 H       1  UNL1        0.0621
     47 H          -1.0100   -4.3520   -3.8200 H       1  UNL1        0.0278
     48 H          -2.0050   -3.0850   -3.1340 H       1  UNL1        0.0278
     49 H          -1.4300   -2.9520   -4.8240 H       1  UNL1        0.0278
     50 H          -1.6790   -0.7290   -4.3810 H       1  UNL1        0.1033
     51 H          -5.2920    1.6520   -2.7840 H       1  UNL1        0.0639
     52 H          -5.9420    2.6240   -0.6360 H       1  UNL1        0.0637
     53 H          -6.7260    2.0680    1.3020 H       1  UNL1        0.0476
     54 H          -6.3700    3.0250    2.7240 H       1  UNL1        0.0476
     55 H          -5.7930    0.0260    2.3780 H       1  UNL1        0.0442
     56 H          -7.0870    0.7490    3.3470 H       1  UNL1        0.0442
     57 H          -4.5430   -0.1890    5.8210 H       1  UNL1        0.0391
     58 H          -4.8560   -1.1290    4.3460 H       1  UNL1        0.0391
     59 H          -6.1990   -0.4670    5.3030 H       1  UNL1        0.0391
     60 H          -3.3710    0.4210    3.1650 H       1  UNL1        0.0442
     61 H          -3.1360    1.4360    4.5920 H       1  UNL1        0.0442
     62 H          -2.6760    2.7510    2.5190 H       1  UNL1        0.0476
     63 H          -4.0020    3.4130    3.4390 H       1  UNL1        0.0476
     64 H          -2.3330    1.0760    1.1370 H       1  UNL1        0.0644
     65 H           1.3150    0.0660   -1.5480 H       1  UNL1        0.0657
@<TRIPOS>BOND
     1     1     2    1
     2     1    37    1
     3     1    38    1
     4     1    39    1
     5     2     3    1
     6     3     4   ar
     7     3     8   ar
     8     4     5   ar
     9     4    40    1
    10     5     6   ar
    11     5    41    1
    12     6     7   ar
    13     6    42    1
    14     7     8   ar
    15     7    43    1
    16     8     9    1
    17     9    10    2
    18     9    11   am
    19    11    12    1
    20    11    44    1
    21    12    13   ar
    22    12    36   ar
    23    13    14   ar
    24    13    45    1
    25    14    15   ar
    26    14    46    1
    27    15    16    1
    28    15    17   ar
    29    16    47    1
    30    16    48    1
    31    16    49    1
    32    17    18    1
    33    17    36   ar
    34    18    19   ar
    35    18    34   ar
    36    19    20   ar
    37    19    50    1
    38    20    21   ar
    39    21    22   ar
    40    21    33   ar
    41    22    23   ar
    42    22    51    1
    43    23    24   ar
    44    23    52    1
    45    24    25    1
    46    24    32   ar
    47    25    26    1
    48    25    31    1
    49    26    27    1
    50    26    53    1
    51    26    54    1
    52    27    28    1
    53    27    55    1
    54    27    56    1
    55    28    29    1
    56    28    30    1
    57    29    57    1
    58    29    58    1
    59    29    59    1
    60    30    31    1
    61    30    60    1
    62    30    61    1
    63    31    62    1
    64    31    63    1
    65    32    33   ar
    66    32    64    1
    67    33    34   ar
    68    34    35    2
    69    36    65    1
@<TRIPOS>MOLECULE
AD3CC01315584-I00-C00
 65 69 0 0 0
SMALL
GASTEIGER

@<TRIPOS>ATOM
      1 C          -4.0690    2.0860    1.3650 C.3     1  UNL1       -0.0377
      2 C          -3.0170    1.5040    2.2700 C.ar    1  UNL1       -0.0264
      3 C          -2.8730    2.0420    3.5570 C.ar    1  UNL1       -0.0551
      4 C          -1.9220    1.5320    4.4460 C.ar    1  UNL1       -0.0401
      5 C          -1.0900    0.4740    4.0700 C.ar    1  UNL1        0.0356
      6 N          -0.1530    0.0140    5.0200 N.am    1  UNL1       -0.2814
      7 C           0.6500   -1.1070    4.9200 C.2     1  UNL1        0.2483
      8 O           0.6240   -1.9490    4.0310 O.2     1  UNL1       -0.2699
      9 C           1.5960   -1.3090    6.0550 C.ar    1  UNL1        0.0371
     10 C           2.2150   -0.2310    6.7030 C.ar    1  UNL1       -0.0484
     11 C           3.0990   -0.4680    7.7620 C.ar    1  UNL1       -0.0436
     12 C           3.3740   -1.7780    8.1710 C.ar    1  UNL1        0.0518
     13 C           4.2780   -2.0150    9.2580 C.1     1  UNL1        0.0992
     14 N           5.0070   -2.2020   10.1420 N.1     1  UNL1       -0.1909
     15 C           2.7690   -2.8540    7.5120 C.ar    1  UNL1       -0.0436
     16 C           1.8870   -2.6200    6.4540 C.ar    1  UNL1       -0.0484
     17 C          -1.2080   -0.0470    2.7810 C.ar    1  UNL1       -0.0162
     18 C          -2.1600    0.4580    1.8750 C.ar    1  UNL1        0.0558
     19 N          -2.2060   -0.0930    0.5570 N.ar    1  UNL1       -0.2643
     20 C          -2.4760   -1.4370    0.3380 C.ar    1  UNL1        0.1144
     21 C          -2.8980   -2.3170    1.4960 C.3     1  UNL1       -0.0058
     22 N          -2.4210   -2.0020   -0.8290 N.ar    1  UNL1       -0.2334
     23 C          -2.0900   -1.2200   -1.9370 C.ar    1  UNL1        0.0783
     24 C          -2.0590   -1.8120   -3.1960 C.ar    1  UNL1       -0.0338
     25 C          -1.7370   -1.0600   -4.3350 C.ar    1  UNL1       -0.0386
     26 C          -1.4260    0.3050   -4.2510 C.ar    1  UNL1        0.0306
     27 N          -1.1050    1.0970   -5.3640 N.pl3   1  UNL1       -0.3274
     28 C           0.2070    1.7860   -5.2600 C.3     1  UNL1        0.0250
     29 C           0.3680    2.8370   -6.3850 C.3     1  UNL1        0.0144
     30 N           0.1870    2.2610   -7.7360 N.3     1  UNL1       -0.3024
     31 C           0.3080    3.2970   -8.7590 C.3     1  UNL1       -0.0126
     32 C          -1.1430    1.6150   -7.8020 C.3     1  UNL1        0.0144
     33 C          -1.3290    0.5330   -6.7140 C.3     1  UNL1        0.0250
     34 C          -1.4830    0.8890   -2.9750 C.ar    1  UNL1       -0.0263
     35 C          -1.8040    0.1320   -1.8380 C.ar    1  UNL1        0.0670
     36 C          -1.8330    0.7480   -0.5000 C.ar    1  UNL1        0.2663
     37 O          -1.5010    1.9280   -0.3920 O.2     1  UNL1       -0.2666
     38 H          -4.9270    2.4430    1.9490 H       1  UNL1        0.0278
     39 H          -3.6600    2.9320    0.8040 H       1  UNL1        0.0278
     40 H          -4.4530    1.3430    0.6600 H       1  UNL1        0.0278
     41 H          -3.5080    2.8670    3.8770 H       1  UNL1        0.0621
     42 H          -1.8480    1.9760    5.4350 H       1  UNL1        0.0636
     43 H          -0.1430    0.5120    5.9000 H       1  UNL1        0.1551
     44 H           2.0480    0.7920    6.3760 H       1  UNL1        0.0625
     45 H           3.5790    0.3760    8.2590 H       1  UNL1        0.0631
     46 H           2.9810   -3.8790    7.8120 H       1  UNL1        0.0631
     47 H           1.4230   -3.4620    5.9400 H       1  UNL1        0.0625
     48 H          -0.5310   -0.8250    2.4380 H       1  UNL1        0.0657
     49 H          -3.5080   -1.7760    2.2210 H       1  UNL1        0.0308
     50 H          -2.0100   -2.7270    1.9840 H       1  UNL1        0.0308
     51 H          -3.4930   -3.1550    1.1210 H       1  UNL1        0.0308
     52 H          -2.2870   -2.8700   -3.2950 H       1  UNL1        0.0639
     53 H          -1.7220   -1.5830   -5.2860 H       1  UNL1        0.0637
     54 H           1.0160    1.0460   -5.3290 H       1  UNL1        0.0476
     55 H           0.3190    2.3090   -4.3050 H       1  UNL1        0.0476
     56 H          -0.3570    3.6460   -6.2160 H       1  UNL1        0.0442
     57 H           1.3710    3.2730   -6.3050 H       1  UNL1        0.0442
     58 H           0.2070    2.8600   -9.7580 H       1  UNL1        0.0391
     59 H          -0.4460    4.0850   -8.6480 H       1  UNL1        0.0391
     60 H           1.3010    3.7620   -8.7200 H       1  UNL1        0.0391
     61 H          -1.2680    1.1410   -8.7820 H       1  UNL1        0.0442
     62 H          -1.9370    2.3660   -7.6970 H       1  UNL1        0.0442
     63 H          -0.6290   -0.2910   -6.9030 H       1  UNL1        0.0476
     64 H          -2.3530    0.1470   -6.7980 H       1  UNL1        0.0476
     65 H          -1.2980    1.9540   -2.8580 H       1  UNL1        0.0644
@<TRIPOS>BOND
     1     1     2    1
     2     1    38    1
     3     1    39    1
     4     1    40    1
     5     2     3   ar
     6     2    18   ar
     7     3     4   ar
     8     3    41    1
     9     4     5   ar
    10     4    42    1
    11     5     6    1
    12     5    17   ar
    13     6     7   am
    14     6    43    1
    15     7     8    2
    16     7     9    1
    17     9    10   ar
    18     9    16   ar
    19    10    11   ar
    20    10    44    1
    21    11    12   ar
    22    11    45    1
    23    12    13    1
    24    12    15   ar
    25    13    14    3
    26    15    16   ar
    27    15    46    1
    28    16    47    1
    29    17    18   ar
    30    17    48    1
    31    18    19    1
    32    19    20   ar
    33    19    36   ar
    34    20    21    1
    35    20    22   ar
    36    21    49    1
    37    21    50    1
    38    21    51    1
    39    22    23   ar
    40    23    24   ar
    41    23    35   ar
    42    24    25   ar
    43    24    52    1
    44    25    26   ar
    45    25    53    1
    46    26    27    1
    47    26    34   ar
    48    27    28    1
    49    27    33    1
    50    28    29    1
    51    28    54    1
    52    28    55    1
    53    29    30    1
    54    29    56    1
    55    29    57    1
    56    30    31    1
    57    30    32    1
    58    31    58    1
    59    31    59    1
    60    31    60    1
    61    32    33    1
    62    32    61    1
    63    32    62    1
    64    33    63    1
    65    33    64    1
    66    34    35   ar
    67    34    65    1
    68    35    36   ar
    69    36    37    2
@<TRIPOS>MOLECULE
AD3CC01315587-I00-C00
 58 62 0 0 0
SMALL
GASTEIGER

@<TRIPOS>ATOM
      1 C          -2.0470    5.8770   -0.3920 C.3     1  UNL1       -0.0377
      2 C          -2.3050    5.0930    0.8680 C.ar    1  UNL1       -0.0264
      3 C          -3.2850    5.5960    1.7420 C.ar    1  UNL1       -0.0551
      4 C          -3.6700    4.8920    2.8850 C.ar    1  UNL1       -0.0401
      5 C          -3.0870    3.6660    3.1820 C.ar    1  UNL1        0.0354
      6 N          -3.4330    2.8780    4.2970 N.am    1  UNL1       -0.2852
      7 C          -4.3650    3.1630    5.2700 C.2     1  UNL1        0.2203
      8 O          -5.0780    4.1490    5.3670 O.2     1  UNL1       -0.2752
      9 C          -4.4870    2.0780    6.2840 C.3     1  UNL1        0.0359
     10 C          -3.2870    1.5930    7.0660 C.3     1  UNL1       -0.0412
     11 C          -4.3410    2.4100    7.7520 C.3     1  UNL1       -0.0412
     12 C          -2.0870    3.1730    2.3330 C.ar    1  UNL1       -0.0162
     13 C          -1.6630    3.8770    1.1880 C.ar    1  UNL1        0.0555
     14 N          -0.5840    3.3430    0.4050 N.ar    1  UNL1       -0.2667
     15 C           0.4530    4.1700    0.0220 C.ar    1  UNL1        0.1039
     16 N           1.4780    3.8220   -0.6830 N.ar    1  UNL1       -0.2366
     17 C           1.5600    2.4850   -1.0840 C.ar    1  UNL1        0.0780
     18 C           2.6420    2.0780   -1.8580 C.ar    1  UNL1       -0.0338
     19 C           2.7690    0.7420   -2.2650 C.ar    1  UNL1       -0.0386
     20 C           1.8150   -0.2260   -1.9200 C.ar    1  UNL1        0.0306
     21 N           1.9090   -1.5750   -2.2920 N.pl3   1  UNL1       -0.3274
     22 C           0.7510   -2.0690   -3.0800 C.3     1  UNL1        0.0250
     23 C           0.7940   -3.6100   -3.2130 C.3     1  UNL1        0.0144
     24 N           2.0670   -4.1040   -3.7820 N.3     1  UNL1       -0.3024
     25 C           2.0750   -5.5640   -3.8350 C.3     1  UNL1       -0.0126
     26 C           3.1870   -3.6060   -2.9530 C.3     1  UNL1        0.0144
     27 C           3.1950   -2.0650   -2.8350 C.3     1  UNL1        0.0250
     28 C           0.7370    0.2000   -1.1260 C.ar    1  UNL1       -0.0263
     29 C           0.6120    1.5380   -0.7210 C.ar    1  UNL1        0.0670
     30 C          -0.5350    1.9780    0.1010 C.ar    1  UNL1        0.2661
     31 O          -1.3690    1.1380    0.4350 O.2     1  UNL1       -0.2666
     32 H          -1.7490    5.2240   -1.2180 H       1  UNL1        0.0278
     33 H          -2.9580    6.3890   -0.7230 H       1  UNL1        0.0278
     34 H          -1.2740    6.6330   -0.2220 H       1  UNL1        0.0278
     35 H          -3.7850    6.5390    1.5230 H       1  UNL1        0.0621
     36 H          -4.4440    5.3240    3.5120 H       1  UNL1        0.0636
     37 H          -2.9550    1.9910    4.3860 H       1  UNL1        0.1548
     38 H          -5.2570    1.3510    6.0420 H       1  UNL1        0.0394
     39 H          -3.2300    0.5370    7.3050 H       1  UNL1        0.0273
     40 H          -2.3240    2.0650    6.9030 H       1  UNL1        0.0273
     41 H          -4.1050    3.4340    8.0210 H       1  UNL1        0.0273
     42 H          -5.0060    1.9130    8.4490 H       1  UNL1        0.0273
     43 H          -1.6050    2.2310    2.5870 H       1  UNL1        0.0657
     44 H           0.3900    5.2060    0.3870 H       1  UNL1        0.1033
     45 H           3.3980    2.8030   -2.1480 H       1  UNL1        0.0639
     46 H           3.6310    0.4880   -2.8750 H       1  UNL1        0.0637
     47 H          -0.2040   -1.8060   -2.6110 H       1  UNL1        0.0476
     48 H           0.7650   -1.6120   -4.0790 H       1  UNL1        0.0476
     49 H           0.6250   -4.0530   -2.2220 H       1  UNL1        0.0442
     50 H          -0.0370   -3.9210   -3.8570 H       1  UNL1        0.0442
     51 H           3.0080   -5.9260   -4.2810 H       1  UNL1        0.0391
     52 H           1.2600   -5.9280   -4.4700 H       1  UNL1        0.0391
     53 H           1.9680   -6.0190   -2.8440 H       1  UNL1        0.0391
     54 H           3.1360   -4.0400   -1.9450 H       1  UNL1        0.0442
     55 H           4.1380   -3.9200   -3.3980 H       1  UNL1        0.0442
     56 H           4.0200   -1.7830   -2.1690 H       1  UNL1        0.0476
     57 H           3.3820   -1.6290   -3.8250 H       1  UNL1        0.0476
     58 H          -0.0060   -0.5220   -0.7940 H       1  UNL1        0.0644
@<TRIPOS>BOND
     1     1     2    1
     2     1    32    1
     3     1    33    1
     4     1    34    1
     5     2     3   ar
     6     2    13   ar
     7     3     4   ar
     8     3    35    1
     9     4     5   ar
    10     4    36    1
    11     5     6    1
    12     5    12   ar
    13     6     7   am
    14     6    37    1
    15     7     8    2
    16     7     9    1
    17     9    10    1
    18     9    11    1
    19     9    38    1
    20    10    11    1
    21    10    39    1
    22    10    40    1
    23    11    41    1
    24    11    42    1
    25    12    13   ar
    26    12    43    1
    27    13    14    1
    28    14    15   ar
    29    14    30   ar
    30    15    16   ar
    31    15    44    1
    32    16    17   ar
    33    17    18   ar
    34    17    29   ar
    35    18    19   ar
    36    18    45    1
    37    19    20   ar
    38    19    46    1
    39    20    21    1
    40    20    28   ar
    41    21    22    1
    42    21    27    1
    43    22    23    1
    44    22    47    1
    45    22    48    1
    46    23    24    1
    47    23    49    1
    48    23    50    1
    49    24    25    1
    50    24    26    1
    51    25    51    1
    52    25    52    1
    53    25    53    1
    54    26    27    1
    55    26    54    1
    56    26    55    1
    57    27    56    1
    58    27    57    1
    59    28    29   ar
    60    28    58    1
    61    29    30   ar
    62    30    31    2
@<TRIPOS>MOLECULE
AD3CC01315587-I00-C00
 58 62 0 0 0
SMALL
GASTEIGER

@<TRIPOS>ATOM
      1 C          -2.0470    5.8770   -0.3920 C.3     1  UNL1       -0.0377
      2 C          -2.3050    5.0930    0.8680 C.ar    1  UNL1       -0.0264
      3 C          -3.2850    5.5960    1.7420 C.ar    1  UNL1       -0.0551
      4 C          -3.6700    4.8920    2.8850 C.ar    1  UNL1       -0.0401
      5 C          -3.0870    3.6660    3.1820 C.ar    1  UNL1        0.0354
      6 N          -3.4330    2.8780    4.2970 N.am    1  UNL1       -0.2852
      7 C          -4.3650    3.1630    5.2700 C.2     1  UNL1        0.2203
      8 O          -5.0780    4.1490    5.3670 O.2     1  UNL1       -0.2752
      9 C          -4.4870    2.0780    6.2840 C.3     1  UNL1        0.0359
     10 C          -3.2870    1.5930    7.0660 C.3     1  UNL1       -0.0412
     11 C          -4.3410    2.4100    7.7520 C.3     1  UNL1       -0.0412
     12 C          -2.0870    3.1730    2.3330 C.ar    1  UNL1       -0.0162
     13 C          -1.6630    3.8770    1.1880 C.ar    1  UNL1        0.0555
     14 N          -0.5840    3.3430    0.4050 N.ar    1  UNL1       -0.2667
     15 C           0.4530    4.1700    0.0220 C.ar    1  UNL1        0.1039
     16 N           1.4780    3.8220   -0.6830 N.ar    1  UNL1       -0.2366
     17 C           1.5600    2.4850   -1.0840 C.ar    1  UNL1        0.0780
     18 C           2.6420    2.0780   -1.8580 C.ar    1  UNL1       -0.0338
     19 C           2.7690    0.7420   -2.2650 C.ar    1  UNL1       -0.0386
     20 C           1.8150   -0.2260   -1.9200 C.ar    1  UNL1        0.0306
     21 N           1.9090   -1.5750   -2.2920 N.pl3   1  UNL1       -0.3274
     22 C           0.7510   -2.0690   -3.0800 C.3     1  UNL1        0.0250
     23 C           0.7940   -3.6100   -3.2130 C.3     1  UNL1        0.0144
     24 N           2.0670   -4.1040   -3.7820 N.3     1  UNL1       -0.3024
     25 C           2.0750   -5.5640   -3.8350 C.3     1  UNL1       -0.0126
     26 C           3.1870   -3.6060   -2.9530 C.3     1  UNL1        0.0144
     27 C           3.1950   -2.0650   -2.8350 C.3     1  UNL1        0.0250
     28 C           0.7370    0.2000   -1.1260 C.ar    1  UNL1       -0.0263
     29 C           0.6120    1.5380   -0.7210 C.ar    1  UNL1        0.0670
     30 C          -0.5350    1.9780    0.1010 C.ar    1  UNL1        0.2661
     31 O          -1.3690    1.1380    0.4350 O.2     1  UNL1       -0.2666
     32 H          -1.7490    5.2240   -1.2180 H       1  UNL1        0.0278
     33 H          -2.9580    6.3890   -0.7230 H       1  UNL1        0.0278
     34 H          -1.2740    6.6330   -0.2220 H       1  UNL1        0.0278
     35 H          -3.7850    6.5390    1.5230 H       1  UNL1        0.0621
     36 H          -4.4440    5.3240    3.5120 H       1  UNL1        0.0636
     37 H          -2.9550    1.9910    4.3860 H       1  UNL1        0.1548
     38 H          -5.2570    1.3510    6.0420 H       1  UNL1        0.0394
     39 H          -3.2300    0.5370    7.3050 H       1  UNL1        0.0273
     40 H          -2.3240    2.0650    6.9030 H       1  UNL1        0.0273
     41 H          -4.1050    3.4340    8.0210 H       1  UNL1        0.0273
     42 H          -5.0060    1.9130    8.4490 H       1  UNL1        0.0273
     43 H          -1.6050    2.2310    2.5870 H       1  UNL1        0.0657
     44 H           0.3900    5.2060    0.3870 H       1  UNL1        0.1033
     45 H           3.3980    2.8030   -2.1480 H       1  UNL1        0.0639
     46 H           3.6310    0.4880   -2.8750 H       1  UNL1        0.0637
     47 H          -0.2040   -1.8060   -2.6110 H       1  UNL1        0.0476
     48 H           0.7650   -1.6120   -4.0790 H       1  UNL1        0.0476
     49 H           0.6250   -4.0530   -2.2220 H       1  UNL1        0.0442
     50 H          -0.0370   -3.9210   -3.8570 H       1  UNL1        0.0442
     51 H           3.0080   -5.9260   -4.2810 H       1  UNL1        0.0391
     52 H           1.2600   -5.9280   -4.4700 H       1  UNL1        0.0391
     53 H           1.9680   -6.0190   -2.8440 H       1  UNL1        0.0391
     54 H           3.1360   -4.0400   -1.9450 H       1  UNL1        0.0442
     55 H           4.1380   -3.9200   -3.3980 H       1  UNL1        0.0442
     56 H           4.0200   -1.7830   -2.1690 H       1  UNL1        0.0476
     57 H           3.3820   -1.6290   -3.8250 H       1  UNL1        0.0476
     58 H          -0.0060   -0.5220   -0.7940 H       1  UNL1        0.0644
@<TRIPOS>BOND
     1     1     2    1
     2     1    32    1
     3     1    33    1
     4     1    34    1
     5     2     3   ar
     6     2    13   ar
     7     3     4   ar
     8     3    35    1
     9     4     5   ar
    10     4    36    1
    11     5     6    1
    12     5    12   ar
    13     6     7   am
    14     6    37    1
    15     7     8    2
    16     7     9    1
    17     9    10    1
    18     9    11    1
    19     9    38    1
    20    10    11    1
    21    10    39    1
    22    10    40    1
    23    11    41    1
    24    11    42    1
    25    12    13   ar
    26    12    43    1
    27    13    14    1
    28    14    15   ar
    29    14    30   ar
    30    15    16   ar
    31    15    44    1
    32    16    17   ar
    33    17    18   ar
    34    17    29   ar
    35    18    19   ar
    36    18    45    1
    37    19    20   ar
    38    19    46    1
    39    20    21    1
    40    20    28   ar
    41    21    22    1
    42    21    27    1
    43    22    23    1
    44    22    47    1
    45    22    48    1
    46    23    24    1
    47    23    49    1
    48    23    50    1
    49    24    25    1
    50    24    26    1
    51    25    51    1
    52    25    52    1
    53    25    53    1
    54    26    27    1
    55    26    54    1
    56    26    55    1
    57    27    56    1
    58    27    57    1
    59    28    29   ar
    60    28    58    1
    61    29    30   ar
    62    30    31    2
@<TRIPOS>MOLECULE
AD3CC01315591-I00-C00
 61 65 0 0 0
SMALL
GASTEIGER

@<TRIPOS>ATOM
      1 C           0.4980    2.5570   -2.7330 C.3     1  UNL1       -0.0377
      2 C           1.4200    1.3780   -2.5880 C.ar    1  UNL1       -0.0264
      3 C           2.1290    0.9620   -3.7270 C.ar    1  UNL1       -0.0551
      4 C           2.9370   -0.1790   -3.7030 C.ar    1  UNL1       -0.0401
      5 C           3.0510   -0.9390   -2.5420 C.ar    1  UNL1        0.0356
      6 N           3.8110   -2.1240   -2.4390 N.am    1  UNL1       -0.2814
      7 C           4.6050   -2.7070   -3.4100 C.2     1  UNL1        0.2513
      8 O           4.8170   -2.2510   -4.5270 O.2     1  UNL1       -0.2697
      9 C           5.2240   -3.9640   -2.9930 C.ar    1  UNL1        0.0746
     10 C           5.0960   -4.7450   -1.8040 C.ar    1  UNL1       -0.0117
     11 C           5.9160   -5.8390   -1.9590 C.ar    1  UNL1        0.0924
     12 O           6.5430   -5.7940   -3.1590 O.2     1  UNL1       -0.4703
     13 C           6.1210   -4.6650   -3.7800 C.ar    1  UNL1        0.1038
     14 C           2.3670   -0.5190   -1.3950 C.ar    1  UNL1       -0.0162
     15 C           1.5780    0.6470   -1.3950 C.ar    1  UNL1        0.0558
     16 N           0.9440    1.0410   -0.1760 N.ar    1  UNL1       -0.2643
     17 C           1.2520    2.2360    0.4560 C.ar    1  UNL1        0.1144
     18 C           2.3940    3.0950   -0.0480 C.3     1  UNL1       -0.0058
     19 N           0.6310    2.6720    1.5090 N.ar    1  UNL1       -0.2334
     20 C          -0.3820    1.8880    2.0640 C.ar    1  UNL1        0.0783
     21 C          -1.0740    2.3630    3.1740 C.ar    1  UNL1       -0.0338
     22 C          -2.0780    1.5930    3.7760 C.ar    1  UNL1       -0.0386
     23 C          -2.4280    0.3270    3.2850 C.ar    1  UNL1        0.0306
     24 N          -3.4140   -0.4850    3.8640 N.pl3   1  UNL1       -0.3274
     25 C          -3.9230   -0.1210    5.2050 C.3     1  UNL1        0.0250
     26 C          -4.8070   -1.2520    5.7800 C.3     1  UNL1        0.0144
     27 N          -5.9360   -1.5960    4.8890 N.3     1  UNL1       -0.3024
     28 C          -6.7210   -2.6920    5.4510 C.3     1  UNL1       -0.0126
     29 C          -5.4010   -1.9660    3.5600 C.3     1  UNL1        0.0144
     30 C          -4.5130   -0.8620    2.9380 C.3     1  UNL1        0.0250
     31 C          -1.7090   -0.1430    2.1740 C.ar    1  UNL1       -0.0263
     32 C          -0.7060    0.6320    1.5730 C.ar    1  UNL1        0.0670
     33 C           0.0290    0.1450    0.3920 C.ar    1  UNL1        0.2663
     34 O          -0.2100   -0.9880   -0.0230 O.2     1  UNL1       -0.2666
     35 H           1.0750    3.4840   -2.7910 H       1  UNL1        0.0278
     36 H          -0.2160    2.6340   -1.9090 H       1  UNL1        0.0278
     37 H          -0.0950    2.4590   -3.6490 H       1  UNL1        0.0278
     38 H           2.0360    1.5140   -4.6610 H       1  UNL1        0.0621
     39 H           3.4440   -0.4560   -4.6230 H       1  UNL1        0.0636
     40 H           3.7620   -2.5930   -1.5470 H       1  UNL1        0.1551
     41 H           4.4820   -4.5560   -0.9360 H       1  UNL1        0.0656
     42 H           6.1500   -6.6960   -1.3420 H       1  UNL1        0.1029
     43 H           6.5350   -4.4870   -4.7640 H       1  UNL1        0.1037
     44 H           2.4500   -1.0930   -0.4750 H       1  UNL1        0.0657
     45 H           2.9010    3.5540    0.8070 H       1  UNL1        0.0308
     46 H           1.9960    3.9000   -0.6700 H       1  UNL1        0.0308
     47 H           3.1420    2.5280   -0.6050 H       1  UNL1        0.0308
     48 H          -0.8290    3.3420    3.5790 H       1  UNL1        0.0639
     49 H          -2.5870    2.0220    4.6340 H       1  UNL1        0.0637
     50 H          -3.0880    0.0370    5.8980 H       1  UNL1        0.0476
     51 H          -4.5120    0.8040    5.1520 H       1  UNL1        0.0476
     52 H          -4.1810   -2.1370    5.9600 H       1  UNL1        0.0442
     53 H          -5.1960   -0.9220    6.7510 H       1  UNL1        0.0442
     54 H          -7.1390   -2.4050    6.4220 H       1  UNL1        0.0391
     55 H          -7.5710   -2.9280    4.8000 H       1  UNL1        0.0391
     56 H          -6.1280   -3.6040    5.5860 H       1  UNL1        0.0391
     57 H          -4.8120   -2.8910    3.6340 H       1  UNL1        0.0442
     58 H          -6.2330   -2.1620    2.8740 H       1  UNL1        0.0442
     59 H          -5.1250    0.0220    2.7170 H       1  UNL1        0.0476
     60 H          -4.1300   -1.2450    1.9860 H       1  UNL1        0.0476
     61 H          -1.9110   -1.1370    1.7800 H       1  UNL1        0.0644
@<TRIPOS>BOND
     1     1     2    1
     2     1    35    1
     3     1    36    1
     4     1    37    1
     5     2     3   ar
     6     2    15   ar
     7     3     4   ar
     8     3    38    1
     9     4     5   ar
    10     4    39    1
    11     5     6    1
    12     5    14   ar
    13     6     7   am
    14     6    40    1
    15     7     8    2
    16     7     9    1
    17     9    10   ar
    18     9    13   ar
    19    10    11   ar
    20    10    41    1
    21    11    12   ar
    22    11    42    1
    23    12    13   ar
    24    13    43    1
    25    14    15   ar
    26    14    44    1
    27    15    16    1
    28    16    17   ar
    29    16    33   ar
    30    17    18    1
    31    17    19   ar
    32    18    45    1
    33    18    46    1
    34    18    47    1
    35    19    20   ar
    36    20    21   ar
    37    20    32   ar
    38    21    22   ar
    39    21    48    1
    40    22    23   ar
    41    22    49    1
    42    23    24    1
    43    23    31   ar
    44    24    25    1
    45    24    30    1
    46    25    26    1
    47    25    50    1
    48    25    51    1
    49    26    27    1
    50    26    52    1
    51    26    53    1
    52    27    28    1
    53    27    29    1
    54    28    54    1
    55    28    55    1
    56    28    56    1
    57    29    30    1
    58    29    57    1
    59    29    58    1
    60    30    59    1
    61    30    60    1
    62    31    32   ar
    63    31    61    1
    64    32    33   ar
    65    33    34    2
@<TRIPOS>MOLECULE
AD3CC01315595-I00-C00
 60 64 0 0 0
SMALL
GASTEIGER

@<TRIPOS>ATOM
      1 C           8.0530   -4.3810    0.8030 C.3     1  UNL1       -0.0319
      2 C           6.6380   -4.0200    0.5440 C.ar    1  UNL1        0.0080
      3 C           6.1070   -3.1060   -0.3420 C.ar    1  UNL1        0.0397
      4 N           4.7290   -3.0040   -0.3400 N.ar    1  UNL1       -0.2327
      5 C           4.2290   -3.8420    0.5380 C.ar    1  UNL1        0.1648
      6 N           2.8750   -3.9260    0.7360 N.am    1  UNL1       -0.2607
      7 C           2.2130   -4.7960    1.5700 C.2     1  UNL1        0.2498
      8 O           2.6930   -5.6910    2.2550 O.2     1  UNL1       -0.2698
      9 C           0.7320   -4.6270    1.5940 C.ar    1  UNL1        0.0390
     10 C          -0.0700   -5.7550    1.7610 C.ar    1  UNL1       -0.0492
     11 C          -1.4580   -5.6280    1.7620 C.ar    1  UNL1       -0.0562
     12 C          -2.0730   -4.3710    1.6000 C.ar    1  UNL1       -0.0264
     13 C          -3.5770   -4.3560    1.4960 C.3     1  UNL1       -0.0377
     14 C          -1.2650   -3.2150    1.4990 C.ar    1  UNL1        0.0545
     15 N          -1.8140   -1.8910    1.4130 N.ar    1  UNL1       -0.2668
     16 C          -2.8080   -1.5030    2.2870 C.ar    1  UNL1        0.1039
     17 N          -3.3850   -0.3480    2.3100 N.ar    1  UNL1       -0.2366
     18 C          -2.9610    0.6040    1.3760 C.ar    1  UNL1        0.0780
     19 C          -3.5840    1.8470    1.3480 C.ar    1  UNL1       -0.0338
     20 C          -3.1780    2.8320    0.4350 C.ar    1  UNL1       -0.0386
     21 C          -2.1280    2.6090   -0.4680 C.ar    1  UNL1        0.0306
     22 N          -1.7000    3.5580   -1.4070 N.pl3   1  UNL1       -0.3274
     23 C          -2.5520    4.7440   -1.6460 C.3     1  UNL1        0.0250
     24 C          -2.0520    5.5370   -2.8760 C.3     1  UNL1        0.0144
     25 N          -0.6380    5.9500   -2.7460 N.3     1  UNL1       -0.3024
     26 C          -0.1970    6.6620   -3.9440 C.3     1  UNL1       -0.0126
     27 C           0.1930    4.7470   -2.5210 C.3     1  UNL1        0.0144
     28 C          -0.2640    3.9210   -1.2940 C.3     1  UNL1        0.0250
     29 C          -1.5200    1.3430   -0.4350 C.ar    1  UNL1       -0.0263
     30 C          -1.9290    0.3600    0.4790 C.ar    1  UNL1        0.0670
     31 C          -1.2860   -0.9700    0.5020 C.ar    1  UNL1        0.2661
     32 O          -0.3590   -1.1890   -0.2780 O.2     1  UNL1       -0.2666
     33 C           0.1350   -3.3650    1.4880 C.ar    1  UNL1       -0.0253
     34 S           5.3620   -4.7720    1.4060 S.2     1  UNL1       -0.0573
     35 H           8.7280   -3.8030    0.1630 H       1  UNL1        0.0283
     36 H           8.3230   -4.1770    1.8450 H       1  UNL1        0.0283
     37 H           8.2270   -5.4430    0.6000 H       1  UNL1        0.0283
     38 H           6.6810   -2.4830   -1.0180 H       1  UNL1        0.0838
     39 H           2.3570   -3.3030    0.1300 H       1  UNL1        0.1571
     40 H           0.3840   -6.7380    1.8750 H       1  UNL1        0.0625
     41 H          -2.0640   -6.5270    1.8630 H       1  UNL1        0.0621
     42 H          -3.9430   -5.2870    1.0480 H       1  UNL1        0.0278
     43 H          -3.9260   -3.5490    0.8460 H       1  UNL1        0.0278
     44 H          -4.0280   -4.2560    2.4880 H       1  UNL1        0.0278
     45 H          -3.0960   -2.2530    3.0380 H       1  UNL1        0.1033
     46 H          -4.3930    2.0580    2.0430 H       1  UNL1        0.0639
     47 H          -3.6970    3.7850    0.4680 H       1  UNL1        0.0637
     48 H          -2.5460    5.4010   -0.7670 H       1  UNL1        0.0476
     49 H          -3.5850    4.4340   -1.8440 H       1  UNL1        0.0476
     50 H          -2.1880    4.9210   -3.7760 H       1  UNL1        0.0442
     51 H          -2.6830    6.4270   -2.9890 H       1  UNL1        0.0442
     52 H          -0.2710    6.0450   -4.8470 H       1  UNL1        0.0391
     53 H          -0.7970    7.5660   -4.0940 H       1  UNL1        0.0391
     54 H           0.8430    6.9880   -3.8350 H       1  UNL1        0.0391
     55 H           0.1710    4.0990   -3.4080 H       1  UNL1        0.0442
     56 H           1.2350    5.0480   -2.3600 H       1  UNL1        0.0442
     57 H          -0.1040    4.5030   -0.3770 H       1  UNL1        0.0476
     58 H           0.3780    3.0340   -1.2380 H       1  UNL1        0.0476
     59 H          -0.7360    1.1030   -1.1500 H       1  UNL1        0.0644
     60 H           0.7680   -2.4820    1.4450 H       1  UNL1        0.0646
@<TRIPOS>BOND
     1     1     2    1
     2     1    35    1
     3     1    36    1
     4     1    37    1
     5     2     3   ar
     6     2    34   ar
     7     3     4   ar
     8     3    38    1
     9     4     5   ar
    10     5     6    1
    11     5    34   ar
    12     6     7   am
    13     6    39    1
    14     7     8    2
    15     7     9    1
    16     9    10   ar
    17     9    33   ar
    18    10    11   ar
    19    10    40    1
    20    11    12   ar
    21    11    41    1
    22    12    13    1
    23    12    14   ar
    24    13    42    1
    25    13    43    1
    26    13    44    1
    27    14    15    1
    28    14    33   ar
    29    15    16   ar
    30    15    31   ar
    31    16    17   ar
    32    16    45    1
    33    17    18   ar
    34    18    19   ar
    35    18    30   ar
    36    19    20   ar
    37    19    46    1
    38    20    21   ar
    39    20    47    1
    40    21    22    1
    41    21    29   ar
    42    22    23    1
    43    22    28    1
    44    23    24    1
    45    23    48    1
    46    23    49    1
    47    24    25    1
    48    24    50    1
    49    24    51    1
    50    25    26    1
    51    25    27    1
    52    26    52    1
    53    26    53    1
    54    26    54    1
    55    27    28    1
    56    27    55    1
    57    27    56    1
    58    28    57    1
    59    28    58    1
    60    29    30   ar
    61    29    59    1
    62    30    31   ar
    63    31    32    2
    64    33    60    1
@<TRIPOS>MOLECULE
AD3CC01319717-I00-C01
 51 54 0 0 0
SMALL
GASTEIGER

@<TRIPOS>ATOM
      1 C           2.7900   -2.9050    0.2380 C.3     1  UNL1        0.0364
      2 O           1.6850   -3.2300   -0.5940 O.3     1  UNL1       -0.3829
      3 C           1.0790   -4.4640   -0.2020 C.3     1  UNL1        0.0487
      4 C          -0.1190   -4.7470   -1.1030 C.3     1  UNL1       -0.0139
      5 C          -1.2250   -3.7060   -0.9400 C.3     1  UNL1        0.0125
      6 N          -1.8800   -3.8820    0.3600 N.pl3   1  UNL1       -0.3290
      7 C          -2.5070   -2.7210    0.8240 C.ar    1  UNL1        0.1193
      8 C          -1.7780   -1.5760    1.1210 C.ar    1  UNL1       -0.0112
      9 C          -2.4470   -0.4260    1.5470 C.ar    1  UNL1        0.0227
     10 C          -1.7150    0.8240    1.8410 C.ar    1  UNL1        0.1471
     11 O          -1.9220    1.2390    3.1480 O.2     1  UNL1       -0.4540
     12 C          -1.2980    2.3730    3.5880 C.ar    1  UNL1        0.1393
     13 C          -1.5240    2.7530    4.9110 C.ar    1  UNL1       -0.0186
     14 C          -0.9150    3.9010    5.4210 C.ar    1  UNL1       -0.0582
     15 C          -0.0800    4.6690    4.6080 C.ar    1  UNL1       -0.0609
     16 C           0.1470    4.2880    3.2850 C.ar    1  UNL1       -0.0474
     17 C          -0.4660    3.1360    2.7800 C.ar    1  UNL1        0.0646
     18 C          -0.2450    2.7120    1.3910 C.ar    1  UNL1        0.2008
     19 O           0.4900    3.3600    0.6540 O.2     1  UNL1       -0.2864
     20 C          -0.9500    1.4780    0.9360 C.ar    1  UNL1        0.0723
     21 C          -0.7780    1.0280   -0.4610 C.ar    1  UNL1       -0.0105
     22 C           0.4510    0.4980   -0.8830 C.ar    1  UNL1       -0.0511
     23 C           0.6060    0.0300   -2.1900 C.ar    1  UNL1       -0.0259
     24 C          -0.4630    0.1040   -3.0750 C.ar    1  UNL1        0.1234
     25 F          -0.3160   -0.3490   -4.3270 F       1  UNL1       -0.2055
     26 C          -1.6830    0.6400   -2.6810 C.ar    1  UNL1       -0.0259
     27 C          -1.8430    1.1040   -1.3740 C.ar    1  UNL1       -0.0511
     28 C          -3.8290   -0.4880    1.7150 C.ar    1  UNL1       -0.0328
     29 C          -4.4700   -1.6810    1.4300 C.ar    1  UNL1        0.0304
     30 N          -3.8390   -2.7900    0.9880 N.ar    1  UNL1       -0.2405
     31 H           3.2180   -1.9620   -0.1110 H       1  UNL1        0.0523
     32 H           2.4640   -2.7780    1.2750 H       1  UNL1        0.0523
     33 H           3.5580   -3.6820    0.1760 H       1  UNL1        0.0523
     34 H           0.7740   -4.4130    0.8500 H       1  UNL1        0.0560
     35 H           1.8120   -5.2710   -0.3130 H       1  UNL1        0.0560
     36 H           0.2120   -4.7320   -2.1480 H       1  UNL1        0.0302
     37 H          -0.5090   -5.7490   -0.8910 H       1  UNL1        0.0302
     38 H          -1.9720   -3.8490   -1.7300 H       1  UNL1        0.0462
     39 H          -0.8070   -2.7020   -1.0790 H       1  UNL1        0.0462
     40 H          -2.6470   -4.5520    0.2820 H       1  UNL1        0.1474
     41 H          -0.6980   -1.5910    1.0190 H       1  UNL1        0.0659
     42 H          -2.1730    2.1550    5.5470 H       1  UNL1        0.0654
     43 H          -1.0910    4.1970    6.4530 H       1  UNL1        0.0619
     44 H           0.3950    5.5630    5.0050 H       1  UNL1        0.0618
     45 H           0.7980    4.8860    2.6510 H       1  UNL1        0.0626
     46 H           1.2920    0.4380   -0.1970 H       1  UNL1        0.0625
     47 H           1.5490   -0.3950   -2.5170 H       1  UNL1        0.0646
     48 H          -2.5020    0.6900   -3.3910 H       1  UNL1        0.0646
     49 H          -2.8010    1.5190   -1.0720 H       1  UNL1        0.0625
     50 H          -4.3980    0.3680    2.0610 H       1  UNL1        0.0640
     51 H          -5.5450   -1.7790    1.5500 H       1  UNL1        0.0830
@<TRIPOS>BOND
     1     1     2    1
     2     1    31    1
     3     1    32    1
     4     1    33    1
     5     2     3    1
     6     3     4    1
     7     3    34    1
     8     3    35    1
     9     4     5    1
    10     4    36    1
    11     4    37    1
    12     5     6    1
    13     5    38    1
    14     5    39    1
    15     6     7    1
    16     6    40    1
    17     7     8   ar
    18     7    30   ar
    19     8     9   ar
    20     8    41    1
    21     9    10    1
    22     9    28   ar
    23    10    11   ar
    24    10    20   ar
    25    11    12   ar
    26    12    13   ar
    27    12    17   ar
    28    13    14   ar
    29    13    42    1
    30    14    15   ar
    31    14    43    1
    32    15    16   ar
    33    15    44    1
    34    16    17   ar
    35    16    45    1
    36    17    18   ar
    37    18    19    2
    38    18    20   ar
    39    20    21    1
    40    21    22   ar
    41    21    27   ar
    42    22    23   ar
    43    22    46    1
    44    23    24   ar
    45    23    47    1
    46    24    25    1
    47    24    26   ar
    48    26    27   ar
    49    26    48    1
    50    27    49    1
    51    28    29   ar
    52    28    50    1
    53    29    30   ar
    54    29    51    1
@<TRIPOS>MOLECULE
AD3CC01319720-I00-C00
 52 56 0 0 0
SMALL
GASTEIGER

@<TRIPOS>ATOM
      1 O          -1.9730   -2.5960   -2.7460 O.2     1  UNL1       -0.2864
      2 C          -1.0620   -2.5530   -1.9260 C.ar    1  UNL1        0.2008
      3 C          -1.0030   -1.5210   -0.8480 C.ar    1  UNL1        0.0723
      4 C          -2.0610   -0.4920   -0.7760 C.ar    1  UNL1       -0.0105
      5 C          -1.7650    0.8610   -1.0090 C.ar    1  UNL1       -0.0511
      6 C          -2.7690    1.8280   -0.9200 C.ar    1  UNL1       -0.0259
      7 C          -4.0670    1.4430   -0.6080 C.ar    1  UNL1        0.1234
      8 F          -5.0280    2.3710   -0.5230 F       1  UNL1       -0.2055
      9 C          -4.3830    0.1080   -0.3870 C.ar    1  UNL1       -0.0259
     10 C          -3.3810   -0.8610   -0.4720 C.ar    1  UNL1       -0.0511
     11 C           0.0280   -1.5910    0.0240 C.ar    1  UNL1        0.1471
     12 C           0.2020   -0.6620    1.1560 C.ar    1  UNL1        0.0227
     13 C          -0.6800   -0.6630    2.2350 C.ar    1  UNL1       -0.0328
     14 C          -0.4510    0.2340    3.2600 C.ar    1  UNL1        0.0304
     15 N           0.5750    1.1120    3.2770 N.ar    1  UNL1       -0.2405
     16 C           1.4210    1.1070    2.2310 C.ar    1  UNL1        0.1195
     17 N           2.4550    2.0350    2.3080 N.pl3   1  UNL1       -0.3261
     18 C           2.5960    2.9750    1.1850 C.3     1  UNL1        0.0261
     19 C           3.9160    3.7390    1.3390 C.3     1  UNL1       -0.0109
     20 C           3.8240    4.8190    2.4060 C.3     1  UNL1        0.0493
     21 O           2.7330    5.6980    2.1390 O.3     1  UNL1       -0.3796
     22 C           1.4780    5.0190    2.1750 C.3     1  UNL1        0.0493
     23 C           1.4180    3.9530    1.0910 C.3     1  UNL1       -0.0109
     24 C           1.2780    0.2290    1.1660 C.ar    1  UNL1       -0.0112
     25 O           1.0520   -2.5230   -0.0290 O.2     1  UNL1       -0.4540
     26 C           1.0340   -3.4670   -1.0180 C.ar    1  UNL1        0.1393
     27 C           2.0820   -4.3880   -1.0400 C.ar    1  UNL1       -0.0186
     28 C           2.1190   -5.3780   -2.0240 C.ar    1  UNL1       -0.0582
     29 C           1.1090   -5.4470   -2.9850 C.ar    1  UNL1       -0.0609
     30 C           0.0610   -4.5260   -2.9620 C.ar    1  UNL1       -0.0474
     31 C           0.0300   -3.5360   -1.9740 C.ar    1  UNL1        0.0646
     32 H          -0.7550    1.1710   -1.2630 H       1  UNL1        0.0625
     33 H          -2.5480    2.8760   -1.0960 H       1  UNL1        0.0646
     34 H          -5.4060   -0.1720   -0.1570 H       1  UNL1        0.0646
     35 H          -3.6390   -1.9060   -0.3120 H       1  UNL1        0.0625
     36 H          -1.5220   -1.3450    2.2840 H       1  UNL1        0.0640
     37 H          -1.1060    0.2730    4.1260 H       1  UNL1        0.0830
     38 H           2.2960    2.5040    3.2000 H       1  UNL1        0.1477
     39 H           2.6600    2.4090    0.2480 H       1  UNL1        0.0499
     40 H           4.7440    3.0560    1.5640 H       1  UNL1        0.0305
     41 H           4.1420    4.2210    0.3790 H       1  UNL1        0.0305
     42 H           3.7160    4.3930    3.4100 H       1  UNL1        0.0560
     43 H           4.7400    5.4190    2.4040 H       1  UNL1        0.0560
     44 H           0.6940    5.7640    2.0040 H       1  UNL1        0.0560
     45 H           1.3160    4.5970    3.1730 H       1  UNL1        0.0560
     46 H           1.4790    4.4550    0.1160 H       1  UNL1        0.0305
     47 H           0.4520    3.4370    1.1240 H       1  UNL1        0.0305
     48 H           2.0010    0.2270    0.3580 H       1  UNL1        0.0659
     49 H           2.8700   -4.3360   -0.2920 H       1  UNL1        0.0654
     50 H           2.9360   -6.0960   -2.0420 H       1  UNL1        0.0619
     51 H           1.1380   -6.2180   -3.7510 H       1  UNL1        0.0618
     52 H          -0.7260   -4.5800   -3.7110 H       1  UNL1        0.0626
@<TRIPOS>BOND
     1     1     2    2
     2     2     3   ar
     3     2    31   ar
     4     3     4    1
     5     3    11   ar
     6     4     5   ar
     7     4    10   ar
     8     5     6   ar
     9     5    32    1
    10     6     7   ar
    11     6    33    1
    12     7     8    1
    13     7     9   ar
    14     9    10   ar
    15     9    34    1
    16    10    35    1
    17    11    12    1
    18    11    25   ar
    19    12    13   ar
    20    12    24   ar
    21    13    14   ar
    22    13    36    1
    23    14    15   ar
    24    14    37    1
    25    15    16   ar
    26    16    17    1
    27    16    24   ar
    28    17    18    1
    29    17    38    1
    30    18    19    1
    31    18    23    1
    32    18    39    1
    33    19    20    1
    34    19    40    1
    35    19    41    1
    36    20    21    1
    37    20    42    1
    38    20    43    1
    39    21    22    1
    40    22    23    1
    41    22    44    1
    42    22    45    1
    43    23    46    1
    44    23    47    1
    45    24    48    1
    46    25    26   ar
    47    26    27   ar
    48    26    31   ar
    49    27    28   ar
    50    27    49    1
    51    28    29   ar
    52    28    50    1
    53    29    30   ar
    54    29    51    1
    55    30    31   ar
    56    30    52    1
@<TRIPOS>MOLECULE
AD3CC01328823-I00-C00
 44 47 0 0 0
SMALL
GASTEIGER

@<TRIPOS>ATOM
      1 C           7.8660    0.0610   -0.4440 C.3     1  UNL1        0.0788
      2 O           6.7980   -0.8590   -0.2610 O.3     1  UNL1       -0.4951
      3 C           5.5290   -0.3480   -0.2910 C.ar    1  UNL1        0.1207
      4 C           5.1880    0.9860   -0.5030 C.ar    1  UNL1       -0.0194
      5 C           3.8440    1.3750   -0.5090 C.ar    1  UNL1       -0.0506
      6 C           2.8200    0.4360   -0.3060 C.ar    1  UNL1       -0.0170
      7 C           1.4670    0.8150   -0.3120 C.ar    1  UNL1       -0.0448
      8 C           0.4520   -0.1320   -0.1220 C.ar    1  UNL1        0.0035
      9 C          -0.9540    0.2630   -0.1440 C.ar    1  UNL1        0.1053
     10 N          -1.7850   -0.1490    0.8310 N.ar    1  UNL1       -0.1684
     11 N          -2.9680    0.4260    0.5260 N.ar    1  UNL1       -0.2431
     12 C          -4.1250    0.2270    1.3920 C.3     1  UNL1        0.0493
     13 C          -3.8770    0.7920    2.7910 C.3     1  UNL1       -0.0428
     14 C          -4.5300   -1.2450    1.4500 C.3     1  UNL1       -0.0428
     15 C          -2.9360    1.1570   -0.6300 C.ar    1  UNL1        0.1641
     16 N          -3.9570    1.8280   -1.1930 N.ar    1  UNL1       -0.2161
     17 C          -3.5790    2.4270   -2.3330 C.ar    1  UNL1        0.1204
     18 N          -2.3670    2.4010   -2.9190 N.ar    1  UNL1       -0.2204
     19 C          -1.3730    1.7130   -2.3200 C.ar    1  UNL1        0.1308
     20 N          -0.1530    1.6910   -2.9830 N.pl3   1  UNL1       -0.3425
     21 C          -1.6400    1.0610   -1.1090 C.ar    1  UNL1        0.0859
     22 C           0.8000   -1.4670    0.1070 C.ar    1  UNL1       -0.0519
     23 C           2.1420   -1.8570    0.1190 C.ar    1  UNL1       -0.0533
     24 C           3.1620   -0.9160   -0.0910 C.ar    1  UNL1       -0.0144
     25 C           4.5160   -1.2890   -0.0870 C.ar    1  UNL1       -0.0122
     26 H           7.8200    0.5280   -1.4340 H       1  UNL1        0.0660
     27 H           7.8790    0.8160    0.3500 H       1  UNL1        0.0660
     28 H           8.8040   -0.5000   -0.3850 H       1  UNL1        0.0660
     29 H           5.9390    1.7510   -0.6650 H       1  UNL1        0.0654
     30 H           3.6020    2.4220   -0.6760 H       1  UNL1        0.0625
     31 H           1.2050    1.8610   -0.4610 H       1  UNL1        0.0630
     32 H          -4.9560    0.7870    0.9470 H       1  UNL1        0.0540
     33 H          -3.5940    1.8490    2.7400 H       1  UNL1        0.0250
     34 H          -4.7800    0.7140    3.4050 H       1  UNL1        0.0250
     35 H          -3.0720    0.2570    3.3060 H       1  UNL1        0.0250
     36 H          -4.7130   -1.6400    0.4450 H       1  UNL1        0.0250
     37 H          -5.4470   -1.3710    2.0350 H       1  UNL1        0.0250
     38 H          -3.7500   -1.8610    1.9120 H       1  UNL1        0.0250
     39 H          -4.3440    2.9990   -2.8490 H       1  UNL1        0.1048
     40 H          -0.2700    1.9890   -3.9450 H       1  UNL1        0.1437
     41 H           0.3920    0.8480   -2.8500 H       1  UNL1        0.1437
     42 H           0.0250   -2.2120    0.2800 H       1  UNL1        0.0624
     43 H           2.3840   -2.9020    0.2980 H       1  UNL1        0.0624
     44 H           4.7950   -2.3280    0.0790 H       1  UNL1        0.0660
@<TRIPOS>BOND
     1     1     2    1
     2     1    26    1
     3     1    27    1
     4     1    28    1
     5     2     3    1
     6     3     4   ar
     7     3    25   ar
     8     4     5   ar
     9     4    29    1
    10     5     6   ar
    11     5    30    1
    12     6     7   ar
    13     6    24   ar
    14     7     8   ar
    15     7    31    1
    16     8     9    1
    17     8    22   ar
    18     9    10   ar
    19     9    21   ar
    20    10    11   ar
    21    11    12    1
    22    11    15   ar
    23    12    13    1
    24    12    14    1
    25    12    32    1
    26    13    33    1
    27    13    34    1
    28    13    35    1
    29    14    36    1
    30    14    37    1
    31    14    38    1
    32    15    16   ar
    33    15    21   ar
    34    16    17   ar
    35    17    18   ar
    36    17    39    1
    37    18    19   ar
    38    19    20    1
    39    19    21   ar
    40    20    40    1
    41    20    41    1
    42    22    23   ar
    43    22    42    1
    44    23    24   ar
    45    23    43    1
    46    24    25   ar
    47    25    44    1
@<TRIPOS>MOLECULE
AD3CC01361755-I00-C00
 46 49 0 0 0
SMALL
GASTEIGER

@<TRIPOS>ATOM
      1 C           4.1890    4.1460   -4.5770 C.3     1  UNL1        0.0788
      2 O           3.9550    4.7220   -3.2970 O.3     1  UNL1       -0.4951
      3 C           3.0670    4.0780   -2.4820 C.ar    1  UNL1        0.1208
      4 C           2.8250    4.7080   -1.2680 C.ar    1  UNL1       -0.0197
      5 C           1.9300    4.1540   -0.3530 C.ar    1  UNL1       -0.0544
      6 C           1.2440    2.9510   -0.6250 C.ar    1  UNL1       -0.0360
      7 C           1.5150    2.2920   -1.8370 C.ar    1  UNL1        0.0289
      8 C           2.4160    2.8770   -2.7580 C.ar    1  UNL1       -0.0089
      9 C           0.9520    0.9780   -2.2740 C.2     1  UNL1        0.1938
     10 O           0.9510    0.6920   -3.4720 O.2     1  UNL1       -0.2866
     11 C           0.4670   -0.0570   -1.3380 C.ar    1  UNL1        0.0256
     12 C           0.8540   -1.3810   -1.5860 C.ar    1  UNL1       -0.0489
     13 C           0.4100   -2.4170   -0.7620 C.ar    1  UNL1       -0.0399
     14 C          -0.4340   -2.1550    0.3210 C.ar    1  UNL1        0.0316
     15 N          -0.8650   -3.2120    1.1390 N.pl3   1  UNL1       -0.3130
     16 C          -1.0430   -3.2790    2.5440 C.ar    1  UNL1        0.0524
     17 C          -0.5130   -2.3290    3.4270 C.ar    1  UNL1       -0.0360
     18 C          -0.6800   -2.4740    4.8050 C.ar    1  UNL1       -0.0246
     19 C          -1.3650   -3.5760    5.3010 C.ar    1  UNL1        0.1253
     20 F          -1.4940   -3.7290    6.6250 F       1  UNL1       -0.2054
     21 C          -1.9120   -4.5260    4.4470 C.ar    1  UNL1       -0.0040
     22 C          -1.8100   -4.3540    3.0640 C.ar    1  UNL1        0.0487
     23 N          -2.2960   -5.3570    2.1920 N.pl3   1  UNL1       -0.3565
     24 C          -0.8390   -0.8310    0.5400 C.ar    1  UNL1       -0.0367
     25 C          -0.4010    0.2240   -0.2830 C.ar    1  UNL1       -0.0345
     26 C          -0.8750    1.6230   -0.0250 C.3     1  UNL1       -0.0229
     27 C           0.2830    2.4910    0.4450 C.3     1  UNL1       -0.0230
     28 H           4.8900    4.7940   -5.1110 H       1  UNL1        0.0660
     29 H           3.2660    4.0980   -5.1640 H       1  UNL1        0.0660
     30 H           4.6540    3.1590   -4.4850 H       1  UNL1        0.0660
     31 H           3.3310    5.6410   -1.0330 H       1  UNL1        0.0654
     32 H           1.7630    4.6820    0.5850 H       1  UNL1        0.0622
     33 H           2.6060    2.3580   -3.6940 H       1  UNL1        0.0661
     34 H           1.5040   -1.6100   -2.4290 H       1  UNL1        0.0625
     35 H           0.7350   -3.4320   -0.9750 H       1  UNL1        0.0636
     36 H          -0.6280   -4.1380    0.7900 H       1  UNL1        0.1522
     37 H           0.0780   -1.4960    3.0590 H       1  UNL1        0.0637
     38 H          -0.2550   -1.7510    5.4940 H       1  UNL1        0.0647
     39 H          -2.4230   -5.3830    4.8710 H       1  UNL1        0.0665
     40 H          -3.0640   -5.8870    2.5920 H       1  UNL1        0.1424
     41 H          -2.5590   -4.9480    1.2960 H       1  UNL1        0.1424
     42 H          -1.5360   -0.6220    1.3500 H       1  UNL1        0.0639
     43 H          -1.6450    1.6110    0.7570 H       1  UNL1        0.0317
     44 H          -1.3580    2.0320   -0.9210 H       1  UNL1        0.0317
     45 H           0.8560    1.9840    1.2320 H       1  UNL1        0.0317
     46 H          -0.1650    3.3830    0.9040 H       1  UNL1        0.0317
@<TRIPOS>BOND
     1     1     2    1
     2     1    28    1
     3     1    29    1
     4     1    30    1
     5     2     3    1
     6     3     4   ar
     7     3     8   ar
     8     4     5   ar
     9     4    31    1
    10     5     6   ar
    11     5    32    1
    12     6     7   ar
    13     6    27    1
    14     7     8   ar
    15     7     9    1
    16     8    33    1
    17     9    10    2
    18     9    11    1
    19    11    12   ar
    20    11    25   ar
    21    12    13   ar
    22    12    34    1
    23    13    14   ar
    24    13    35    1
    25    14    15    1
    26    14    24   ar
    27    15    16    1
    28    15    36    1
    29    16    17   ar
    30    16    22   ar
    31    17    18   ar
    32    17    37    1
    33    18    19   ar
    34    18    38    1
    35    19    20    1
    36    19    21   ar
    37    21    22   ar
    38    21    39    1
    39    22    23    1
    40    23    40    1
    41    23    41    1
    42    24    25   ar
    43    24    42    1
    44    25    26    1
    45    26    27    1
    46    26    43    1
    47    26    44    1
    48    27    45    1
    49    27    46    1
@<TRIPOS>MOLECULE
AD3CC01361757-I00-C00
 44 47 0 0 0
SMALL
GASTEIGER

@<TRIPOS>ATOM
      1 C          -4.7460    3.9720    4.3270 C.3     1  UNL1        0.0788
      2 O          -3.4350    4.5210    4.2550 O.3     1  UNL1       -0.4951
      3 C          -2.4630    3.7290    3.7110 C.ar    1  UNL1        0.1208
      4 C          -1.1810    4.2760    3.7350 C.ar    1  UNL1       -0.0197
      5 C          -0.0930    3.5660    3.2230 C.ar    1  UNL1       -0.0544
      6 C          -0.2730    2.2930    2.6650 C.ar    1  UNL1       -0.0360
      7 C          -1.5610    1.7530    2.6190 C.ar    1  UNL1        0.0289
      8 C          -2.6490    2.4640    3.1560 C.ar    1  UNL1       -0.0089
      9 C          -1.8420    0.4070    2.0790 C.2     1  UNL1        0.1938
     10 O          -2.6170   -0.3020    2.7220 O.2     1  UNL1       -0.2866
     11 C          -1.3130   -0.0890    0.7720 C.ar    1  UNL1        0.0256
     12 C          -2.0870   -1.0990    0.1690 C.ar    1  UNL1       -0.0489
     13 C          -1.7550   -1.6300   -1.0800 C.ar    1  UNL1       -0.0399
     14 C          -0.6370   -1.1720   -1.7740 C.ar    1  UNL1        0.0316
     15 N          -0.3740   -1.6960   -3.0510 N.pl3   1  UNL1       -0.3133
     16 C           0.4290   -1.2290   -4.1140 C.ar    1  UNL1        0.0499
     17 C           0.5820    0.1390   -4.3780 C.ar    1  UNL1       -0.0391
     18 C           1.3920    0.5870   -5.4270 C.ar    1  UNL1       -0.0599
     19 C           2.0640   -0.3280   -6.2340 C.ar    1  UNL1       -0.0603
     20 C           1.9200   -1.6940   -5.9980 C.ar    1  UNL1       -0.0416
     21 C           1.1090   -2.1380   -4.9500 C.ar    1  UNL1        0.0621
     22 CL          0.9600   -3.8460   -4.7010 Cl      1  UNL1       -0.0816
     23 C           0.1360   -0.1730   -1.1720 C.ar    1  UNL1       -0.0367
     24 C          -0.1640    0.3660    0.1060 C.ar    1  UNL1       -0.0345
     25 C           0.8080    1.4010    0.6210 C.3     1  UNL1       -0.0229
     26 C           0.9050    1.5320    2.1340 C.3     1  UNL1       -0.0230
     27 H          -5.1490    3.7850    3.3270 H       1  UNL1        0.0660
     28 H          -4.7610    3.0630    4.9380 H       1  UNL1        0.0660
     29 H          -5.3910    4.7100    4.8140 H       1  UNL1        0.0660
     30 H          -1.0260    5.2620    4.1670 H       1  UNL1        0.0654
     31 H           0.8960    4.0180    3.2700 H       1  UNL1        0.0622
     32 H          -3.6310    2.0000    3.1270 H       1  UNL1        0.0661
     33 H          -2.9800   -1.4750    0.6670 H       1  UNL1        0.0625
     34 H          -2.3970   -2.3930   -1.5140 H       1  UNL1        0.0636
     35 H          -0.5570   -2.6960   -3.1130 H       1  UNL1        0.1522
     36 H           0.0420    0.8740   -3.7870 H       1  UNL1        0.0636
     37 H           1.4890    1.6530   -5.6170 H       1  UNL1        0.0618
     38 H           2.6920    0.0220   -7.0490 H       1  UNL1        0.0618
     39 H           2.4400   -2.4070   -6.6320 H       1  UNL1        0.0633
     40 H           1.0300    0.1760   -1.6840 H       1  UNL1        0.0639
     41 H           1.8120    1.1270    0.2690 H       1  UNL1        0.0317
     42 H           0.5640    2.3660    0.1590 H       1  UNL1        0.0317
     43 H           1.8290    2.0690    2.3810 H       1  UNL1        0.0317
     44 H           0.9800    0.5550    2.6270 H       1  UNL1        0.0317
@<TRIPOS>BOND
     1     1     2    1
     2     1    27    1
     3     1    28    1
     4     1    29    1
     5     2     3    1
     6     3     4   ar
     7     3     8   ar
     8     4     5   ar
     9     4    30    1
    10     5     6   ar
    11     5    31    1
    12     6     7   ar
    13     6    26    1
    14     7     8   ar
    15     7     9    1
    16     8    32    1
    17     9    10    2
    18     9    11    1
    19    11    12   ar
    20    11    24   ar
    21    12    13   ar
    22    12    33    1
    23    13    14   ar
    24    13    34    1
    25    14    15    1
    26    14    23   ar
    27    15    16    1
    28    15    35    1
    29    16    17   ar
    30    16    21   ar
    31    17    18   ar
    32    17    36    1
    33    18    19   ar
    34    18    37    1
    35    19    20   ar
    36    19    38    1
    37    20    21   ar
    38    20    39    1
    39    21    22    1
    40    23    24   ar
    41    23    40    1
    42    24    25    1
    43    25    26    1
    44    25    41    1
    45    25    42    1
    46    26    43    1
    47    26    44    1
@<TRIPOS>MOLECULE
AD3CC01361766-I00-C00
 44 47 0 0 0
SMALL
GASTEIGER

@<TRIPOS>ATOM
      1 C           1.6930   -5.9380   -3.6320 C.3     1  UNL1        0.0788
      2 O           0.7160   -6.0360   -2.6030 O.3     1  UNL1       -0.4951
      3 C           0.6730   -5.0150   -1.6940 C.ar    1  UNL1        0.1208
      4 C          -0.2400   -5.1950   -0.6550 C.ar    1  UNL1       -0.0197
      5 C          -0.3760   -4.2340    0.3490 C.ar    1  UNL1       -0.0544
      6 C           0.3960   -3.0640    0.3240 C.ar    1  UNL1       -0.0360
      7 C           1.2940   -2.8720   -0.7290 C.ar    1  UNL1        0.0289
      8 C           1.4420   -3.8540   -1.7260 C.ar    1  UNL1       -0.0089
      9 C           2.1700   -1.6850   -0.8220 C.2     1  UNL1        0.1938
     10 O           3.3430   -1.8810   -1.1430 O.2     1  UNL1       -0.2866
     11 C           1.6880   -0.2830   -0.6400 C.ar    1  UNL1        0.0256
     12 C           2.4680    0.6960   -1.2860 C.ar    1  UNL1       -0.0489
     13 C           2.1200    2.0480   -1.2560 C.ar    1  UNL1       -0.0399
     14 C           0.9800    2.4750   -0.5780 C.ar    1  UNL1        0.0317
     15 N           0.6380    3.8370   -0.6230 N.pl3   1  UNL1       -0.3122
     16 C          -0.5780    4.5170   -0.4160 C.ar    1  UNL1        0.0701
     17 C          -1.8280    3.9370   -0.6720 C.ar    1  UNL1       -0.0348
     18 C          -3.0110    4.6470   -0.4340 C.ar    1  UNL1       -0.0217
     19 C          -2.9480    5.9450    0.0620 C.ar    1  UNL1        0.1614
     20 F          -4.0860    6.6160    0.2870 F       1  UNL1       -0.2024
     21 C          -1.7230    6.5420    0.3150 C.ar    1  UNL1        0.1952
     22 F          -1.6680    7.7960    0.7860 F       1  UNL1       -0.1994
     23 C          -0.5520    5.8340    0.0750 C.ar    1  UNL1        0.1822
     24 F           0.6350    6.4170    0.3180 F       1  UNL1       -0.2004
     25 C           0.2100    1.5040    0.0700 C.ar    1  UNL1       -0.0367
     26 C           0.5530    0.1280    0.0770 C.ar    1  UNL1       -0.0345
     27 C          -0.3660   -0.7700    0.8710 C.3     1  UNL1       -0.0229
     28 C           0.2550   -2.0470    1.4170 C.3     1  UNL1       -0.0230
     29 H           1.6220   -6.8400   -4.2470 H       1  UNL1        0.0660
     30 H           1.4960   -5.0770   -4.2800 H       1  UNL1        0.0660
     31 H           2.7050   -5.8970   -3.2160 H       1  UNL1        0.0660
     32 H          -0.8440   -6.0990   -0.6220 H       1  UNL1        0.0654
     33 H          -1.0880   -4.4140    1.1520 H       1  UNL1        0.0622
     34 H           2.1700   -3.6800   -2.5130 H       1  UNL1        0.0661
     35 H           3.3590    0.4060   -1.8430 H       1  UNL1        0.0625
     36 H           2.7440    2.7610   -1.7900 H       1  UNL1        0.0636
     37 H           1.4470    4.4550   -0.6010 H       1  UNL1        0.1522
     38 H          -1.8960    2.9370   -1.0930 H       1  UNL1        0.0638
     39 H          -3.9770    4.1970   -0.6400 H       1  UNL1        0.0648
     40 H          -0.6660    1.8210    0.6340 H       1  UNL1        0.0639
     41 H          -1.2470   -0.9960    0.2560 H       1  UNL1        0.0317
     42 H          -0.7240   -0.2040    1.7410 H       1  UNL1        0.0317
     43 H           1.2270   -1.8620    1.8910 H       1  UNL1        0.0317
     44 H          -0.3960   -2.4460    2.2060 H       1  UNL1        0.0317
@<TRIPOS>BOND
     1     1     2    1
     2     1    29    1
     3     1    30    1
     4     1    31    1
     5     2     3    1
     6     3     4   ar
     7     3     8   ar
     8     4     5   ar
     9     4    32    1
    10     5     6   ar
    11     5    33    1
    12     6     7   ar
    13     6    28    1
    14     7     8   ar
    15     7     9    1
    16     8    34    1
    17     9    10    2
    18     9    11    1
    19    11    12   ar
    20    11    26   ar
    21    12    13   ar
    22    12    35    1
    23    13    14   ar
    24    13    36    1
    25    14    15    1
    26    14    25   ar
    27    15    16    1
    28    15    37    1
    29    16    17   ar
    30    16    23   ar
    31    17    18   ar
    32    17    38    1
    33    18    19   ar
    34    18    39    1
    35    19    20    1
    36    19    21   ar
    37    21    22    1
    38    21    23   ar
    39    23    24    1
    40    25    26   ar
    41    25    40    1
    42    26    27    1
    43    27    28    1
    44    27    41    1
    45    27    42    1
    46    28    43    1
    47    28    44    1
@<TRIPOS>MOLECULE
AD3CC01361769-I00-C00
 41 44 0 0 0
SMALL
GASTEIGER

@<TRIPOS>ATOM
      1 O          -0.4490   -2.4510   -1.8220 O.2     1  UNL1       -0.2866
      2 C          -0.1080   -1.9850   -0.7330 C.2     1  UNL1        0.1938
      3 C          -0.7040   -0.6940   -0.2740 C.ar    1  UNL1        0.0256
      4 C          -1.2660    0.0920   -1.2980 C.ar    1  UNL1       -0.0489
      5 C          -1.8150    1.3510   -1.0400 C.ar    1  UNL1       -0.0399
      6 C          -1.8240    1.8730    0.2510 C.ar    1  UNL1        0.0316
      7 N          -2.3360    3.1650    0.4540 N.pl3   1  UNL1       -0.3133
      8 C          -2.1850    4.0840    1.5150 C.ar    1  UNL1        0.0499
      9 C          -0.9900    4.1810    2.2420 C.ar    1  UNL1       -0.0391
     10 C          -0.8600    5.0870    3.3010 C.ar    1  UNL1       -0.0599
     11 C          -1.9230    5.9150    3.6500 C.ar    1  UNL1       -0.0603
     12 C          -3.1180    5.8450    2.9360 C.ar    1  UNL1       -0.0416
     13 C          -3.2440    4.9400    1.8770 C.ar    1  UNL1        0.0621
     14 CL         -4.7480    4.8940    1.0180 Cl      1  UNL1       -0.0816
     15 C          -1.2710    1.0900    1.2700 C.ar    1  UNL1       -0.0367
     16 C          -0.7300   -0.2020    1.0410 C.ar    1  UNL1       -0.0345
     17 C          -0.2210   -0.9220    2.2670 C.3     1  UNL1       -0.0229
     18 C          -0.2520   -2.4420    2.2040 C.3     1  UNL1       -0.0230
     19 C           0.8920   -2.9500    1.3780 C.ar    1  UNL1       -0.0360
     20 C           1.9260   -3.6810    1.9880 C.ar    1  UNL1       -0.0544
     21 C           2.9880   -4.1760    1.2310 C.ar    1  UNL1       -0.0199
     22 C           3.0190   -3.9540   -0.1380 C.ar    1  UNL1        0.1176
     23 O           4.0650   -4.4680   -0.8440 O.3     1  UNL1       -0.5067
     24 C           2.0080   -3.2320   -0.7610 C.ar    1  UNL1       -0.0091
     25 C           0.9480   -2.7140    0.0010 C.ar    1  UNL1        0.0289
     26 H          -1.2660   -0.2670   -2.3270 H       1  UNL1        0.0625
     27 H          -2.2170    1.9280   -1.8700 H       1  UNL1        0.0636
     28 H          -3.1640    3.3550   -0.1080 H       1  UNL1        0.1522
     29 H          -0.1320    3.5720    1.9690 H       1  UNL1        0.0636
     30 H           0.0800    5.1490    3.8460 H       1  UNL1        0.0618
     31 H          -1.8200    6.6190    4.4710 H       1  UNL1        0.0618
     32 H          -3.9450    6.4960    3.2050 H       1  UNL1        0.0633
     33 H          -1.2950    1.4670    2.2910 H       1  UNL1        0.0639
     34 H           0.7910   -0.5580    2.4890 H       1  UNL1        0.0317
     35 H          -0.8540   -0.6340    3.1170 H       1  UNL1        0.0317
     36 H          -1.2030   -2.8180    1.8080 H       1  UNL1        0.0317
     37 H          -0.1700   -2.8370    3.2250 H       1  UNL1        0.0317
     38 H           1.9100   -3.8760    3.0580 H       1  UNL1        0.0622
     39 H           3.7840   -4.7430    1.7070 H       1  UNL1        0.0654
     40 H           3.9190   -4.2920   -1.7890 H       1  UNL1        0.2921
     41 H           2.0250   -3.0660   -1.8350 H       1  UNL1        0.0661
@<TRIPOS>BOND
     1     1     2    2
     2     2     3    1
     3     2    25    1
     4     3     4   ar
     5     3    16   ar
     6     4     5   ar
     7     4    26    1
     8     5     6   ar
     9     5    27    1
    10     6     7    1
    11     6    15   ar
    12     7     8    1
    13     7    28    1
    14     8     9   ar
    15     8    13   ar
    16     9    10   ar
    17     9    29    1
    18    10    11   ar
    19    10    30    1
    20    11    12   ar
    21    11    31    1
    22    12    13   ar
    23    12    32    1
    24    13    14    1
    25    15    16   ar
    26    15    33    1
    27    16    17    1
    28    17    18    1
    29    17    34    1
    30    17    35    1
    31    18    19    1
    32    18    36    1
    33    18    37    1
    34    19    20   ar
    35    19    25   ar
    36    20    21   ar
    37    20    38    1
    38    21    22   ar
    39    21    39    1
    40    22    23    1
    41    22    24   ar
    42    23    40    1
    43    24    25   ar
    44    24    41    1
@<TRIPOS>MOLECULE
AD3CC01361862-I00-C00
 60 64 0 0 0
SMALL
GASTEIGER

@<TRIPOS>ATOM
      1 N           7.4390    1.4400   -4.2030 N.pl3   1  UNL1       -0.3565
      2 C           6.7270    0.2430   -3.9470 C.ar    1  UNL1        0.0460
      3 C           7.3100   -0.9910   -4.2520 C.ar    1  UNL1       -0.0392
      4 C           6.6500   -2.1790   -3.9400 C.ar    1  UNL1       -0.0599
      5 C           5.4230   -2.1400   -3.2810 C.ar    1  UNL1       -0.0599
      6 C           4.8650   -0.9140   -2.9100 C.ar    1  UNL1       -0.0387
      7 C           5.5220    0.2860   -3.2050 C.ar    1  UNL1        0.0523
      8 N           5.0320    1.5570   -2.8090 N.pl3   1  UNL1       -0.3130
      9 C           3.7660    1.9420   -2.3350 C.ar    1  UNL1        0.0320
     10 C           2.5830    1.4250   -2.8750 C.ar    1  UNL1       -0.0398
     11 C           1.3370    1.8210   -2.3840 C.ar    1  UNL1       -0.0486
     12 C           1.2570    2.7580   -1.3510 C.ar    1  UNL1        0.0295
     13 C          -0.0980    3.1090   -0.7300 C.ar    1  UNL1        0.1944
     14 O          -0.9870    3.5290   -1.4500 O.2     1  UNL1       -0.2866
     15 C          -0.3960    2.8810    0.7550 C.ar    1  UNL1        0.0329
     16 C          -1.4410    2.0250    1.1350 C.ar    1  UNL1       -0.0086
     17 C          -1.6490    1.7310    2.4820 C.ar    1  UNL1        0.1213
     18 O          -2.6250    0.9180    2.9870 O.3     1  UNL1       -0.4907
     19 C          -3.5650    0.3720    2.0560 C.3     1  UNL1        0.1022
     20 C          -4.5950   -0.4490    2.8480 C.3     1  UNL1        0.0333
     21 N          -5.6930   -0.9940    2.0280 N.3     1  UNL1       -0.2948
     22 C          -6.7490   -1.5530    2.9040 C.3     1  UNL1        0.0225
     23 C          -7.8840   -2.1880    2.0870 C.3     1  UNL1        0.0604
     24 O          -7.3860   -3.2250    1.2310 O.3     1  UNL1       -0.3772
     25 C          -6.4010   -2.6890    0.3390 C.3     1  UNL1        0.0604
     26 C          -5.2300   -2.0600    1.1130 C.3     1  UNL1        0.0225
     27 C          -0.7990    2.2870    3.4400 C.ar    1  UNL1       -0.0193
     28 C           0.2420    3.1410    3.0650 C.ar    1  UNL1       -0.0505
     29 C           0.4480    3.4440    1.7180 C.ar    1  UNL1       -0.0140
     30 C           1.5740    4.4680    1.3520 C.ar    1  UNL1       -0.0533
     31 C           2.3990    4.4080    0.2980 C.ar    1  UNL1       -0.0533
     32 C           2.4250    3.2980   -0.8060 C.ar    1  UNL1       -0.0124
     33 C           3.6710    2.8890   -1.3040 C.ar    1  UNL1       -0.0327
     34 H           8.0830    1.3450   -4.9830 H       1  UNL1        0.1424
     35 H           6.7820    2.2030   -4.3610 H       1  UNL1        0.1424
     36 H           8.2760   -1.0350   -4.7480 H       1  UNL1        0.0636
     37 H           7.0980   -3.1340   -4.2000 H       1  UNL1        0.0618
     38 H           4.9120   -3.0660   -3.0300 H       1  UNL1        0.0618
     39 H           3.9390   -0.9160   -2.3440 H       1  UNL1        0.0637
     40 H           5.8070    2.1030   -2.4400 H       1  UNL1        0.1522
     41 H           2.6230    0.7190   -3.7010 H       1  UNL1        0.0636
     42 H           0.4290    1.4020   -2.8120 H       1  UNL1        0.0625
     43 H          -2.0670    1.6040    0.3540 H       1  UNL1        0.0661
     44 H          -3.0370   -0.2730    1.3450 H       1  UNL1        0.0709
     45 H          -4.0790    1.1810    1.5230 H       1  UNL1        0.0709
     46 H          -4.0810   -1.2450    3.4040 H       1  UNL1        0.0460
     47 H          -5.0150    0.2180    3.6140 H       1  UNL1        0.0460
     48 H          -6.3180   -2.3170    3.5650 H       1  UNL1        0.0449
     49 H          -7.1710   -0.7610    3.5320 H       1  UNL1        0.0449
     50 H          -8.6180   -2.6410    2.7610 H       1  UNL1        0.0572
     51 H          -8.4070   -1.4380    1.4810 H       1  UNL1        0.0572
     52 H          -6.0340   -3.5130   -0.2810 H       1  UNL1        0.0572
     53 H          -6.8750   -1.9570   -0.3270 H       1  UNL1        0.0572
     54 H          -4.5210   -1.6560    0.3830 H       1  UNL1        0.0449
     55 H          -4.7200   -2.8460    1.6850 H       1  UNL1        0.0449
     56 H          -0.9530    2.0590    4.4930 H       1  UNL1        0.0654
     57 H           0.8800    3.5690    3.8340 H       1  UNL1        0.0625
     58 H           1.6770    5.3310    2.0110 H       1  UNL1        0.0624
     59 H           3.1090    5.2260    0.1800 H       1  UNL1        0.0624
     60 H           4.5780    3.3120   -0.8800 H       1  UNL1        0.0642
@<TRIPOS>BOND
     1     1     2    1
     2     1    34    1
     3     1    35    1
     4     2     3   ar
     5     2     7   ar
     6     3     4   ar
     7     3    36    1
     8     4     5   ar
     9     4    37    1
    10     5     6   ar
    11     5    38    1
    12     6     7   ar
    13     6    39    1
    14     7     8    1
    15     8     9    1
    16     8    40    1
    17     9    10   ar
    18     9    33   ar
    19    10    11   ar
    20    10    41    1
    21    11    12   ar
    22    11    42    1
    23    12    13   ar
    24    12    32   ar
    25    13    14    2
    26    13    15   ar
    27    15    16   ar
    28    15    29   ar
    29    16    17   ar
    30    16    43    1
    31    17    18    1
    32    17    27   ar
    33    18    19    1
    34    19    20    1
    35    19    44    1
    36    19    45    1
    37    20    21    1
    38    20    46    1
    39    20    47    1
    40    21    22    1
    41    21    26    1
    42    22    23    1
    43    22    48    1
    44    22    49    1
    45    23    24    1
    46    23    50    1
    47    23    51    1
    48    24    25    1
    49    25    26    1
    50    25    52    1
    51    25    53    1
    52    26    54    1
    53    26    55    1
    54    27    28   ar
    55    27    56    1
    56    28    29   ar
    57    28    57    1
    58    29    30   ar
    59    30    31   ar
    60    30    58    1
    61    31    32   ar
    62    31    59    1
    63    32    33   ar
    64    33    60    1
@<TRIPOS>MOLECULE
AD3CC01361863-I00-C00
 55 59 0 0 0
SMALL
GASTEIGER

@<TRIPOS>ATOM
      1 O          -1.5070   -0.3190   -1.9570 O.2     1  UNL1       -0.2866
      2 C          -1.1480   -0.9500   -0.9610 C.2     1  UNL1        0.1938
      3 C           0.2520   -1.4680   -0.8930 C.ar    1  UNL1        0.0256
      4 C           1.1600   -0.8260   -1.7580 C.ar    1  UNL1       -0.0489
      5 C           2.5190   -1.1550   -1.7780 C.ar    1  UNL1       -0.0399
      6 C           3.0200   -2.1430   -0.9400 C.ar    1  UNL1        0.0317
      7 N           4.3790   -2.4910   -0.8660 N.pl3   1  UNL1       -0.3122
      8 C           5.5470   -1.8310   -1.2980 C.ar    1  UNL1        0.0672
      9 C           5.6620   -0.4370   -1.3440 C.ar    1  UNL1       -0.0350
     10 C           6.8430    0.1650   -1.7900 C.ar    1  UNL1       -0.0245
     11 C           7.9160   -0.6270   -2.1870 C.ar    1  UNL1        0.1262
     12 F           9.0440   -0.0430   -2.6120 F       1  UNL1       -0.2054
     13 C           7.8380   -2.0090   -2.1420 C.ar    1  UNL1        0.0106
     14 C           6.6590   -2.5960   -1.6960 C.ar    1  UNL1        0.1471
     15 F           6.5830   -3.9360   -1.6460 F       1  UNL1       -0.2035
     16 C           2.1150   -2.7890   -0.0840 C.ar    1  UNL1       -0.0367
     17 C           0.7290   -2.4880   -0.0570 C.ar    1  UNL1       -0.0345
     18 C          -0.0990   -3.3070    0.9040 C.3     1  UNL1       -0.0229
     19 C          -1.5600   -3.4960    0.5230 C.3     1  UNL1       -0.0230
     20 C          -2.3430   -2.2570    0.8390 C.ar    1  UNL1       -0.0360
     21 C          -3.3170   -2.2810    1.8460 C.ar    1  UNL1       -0.0544
     22 C          -4.0660   -1.1390    2.1370 C.ar    1  UNL1       -0.0196
     23 C          -3.8680    0.0450    1.4260 C.ar    1  UNL1        0.1216
     24 O          -4.6810    1.0740    1.8050 O.3     1  UNL1       -0.4886
     25 C          -4.6100    2.3210    1.1060 C.3     1  UNL1        0.1044
     26 C          -5.1790    3.3940    2.0380 C.3     1  UNL1        0.0078
     27 C          -5.2830    4.7240    1.3100 C.3     1  UNL1        0.0510
     28 O          -6.0800    4.5940    0.1340 O.3     1  UNL1       -0.3795
     29 C          -5.5320    3.6600   -0.7960 C.3     1  UNL1        0.0510
     30 C          -5.4410    2.2750   -0.1780 C.3     1  UNL1        0.0078
     31 C          -2.8990    0.0750    0.4270 C.ar    1  UNL1       -0.0088
     32 C          -2.1260   -1.0670    0.1420 C.ar    1  UNL1        0.0289
     33 H           0.8130   -0.0420   -2.4310 H       1  UNL1        0.0625
     34 H           3.1630   -0.6400   -2.4840 H       1  UNL1        0.0636
     35 H           4.5280   -3.4900   -0.7300 H       1  UNL1        0.1522
     36 H           4.8470    0.1970   -1.0050 H       1  UNL1        0.0638
     37 H           6.9340    1.2470   -1.8220 H       1  UNL1        0.0647
     38 H           8.6780   -2.6210   -2.4470 H       1  UNL1        0.0675
     39 H           2.5000   -3.5520    0.5910 H       1  UNL1        0.0639
     40 H          -0.0070   -2.8670    1.9050 H       1  UNL1        0.0317
     41 H           0.3410   -4.3120    0.9590 H       1  UNL1        0.0317
     42 H          -1.9640   -4.3410    1.0960 H       1  UNL1        0.0317
     43 H          -1.6780   -3.7620   -0.5340 H       1  UNL1        0.0317
     44 H          -3.5090   -3.1910    2.4120 H       1  UNL1        0.0622
     45 H          -4.8210   -1.1760    2.9190 H       1  UNL1        0.0654
     46 H          -3.5690    2.5970    0.8960 H       1  UNL1        0.0734
     47 H          -6.1730    3.0820    2.3830 H       1  UNL1        0.0323
     48 H          -4.5560    3.4900    2.9340 H       1  UNL1        0.0323
     49 H          -5.7610    5.4670    1.9560 H       1  UNL1        0.0561
     50 H          -4.2930    5.1100    1.0390 H       1  UNL1        0.0561
     51 H          -4.5500    4.0140   -1.1320 H       1  UNL1        0.0561
     52 H          -6.1910    3.6360   -1.6700 H       1  UNL1        0.0561
     53 H          -6.4470    1.9080    0.0620 H       1  UNL1        0.0323
     54 H          -5.0190    1.5660   -0.8980 H       1  UNL1        0.0323
     55 H          -2.7190    0.9680   -0.1620 H       1  UNL1        0.0661
@<TRIPOS>BOND
     1     1     2    2
     2     2     3    1
     3     2    32    1
     4     3     4   ar
     5     3    17   ar
     6     4     5   ar
     7     4    33    1
     8     5     6   ar
     9     5    34    1
    10     6     7    1
    11     6    16   ar
    12     7     8    1
    13     7    35    1
    14     8     9   ar
    15     8    14   ar
    16     9    10   ar
    17     9    36    1
    18    10    11   ar
    19    10    37    1
    20    11    12    1
    21    11    13   ar
    22    13    14   ar
    23    13    38    1
    24    14    15    1
    25    16    17   ar
    26    16    39    1
    27    17    18    1
    28    18    19    1
    29    18    40    1
    30    18    41    1
    31    19    20    1
    32    19    42    1
    33    19    43    1
    34    20    21   ar
    35    20    32   ar
    36    21    22   ar
    37    21    44    1
    38    22    23   ar
    39    22    45    1
    40    23    24    1
    41    23    31   ar
    42    24    25    1
    43    25    26    1
    44    25    30    1
    45    25    46    1
    46    26    27    1
    47    26    47    1
    48    26    48    1
    49    27    28    1
    50    27    49    1
    51    27    50    1
    52    28    29    1
    53    29    30    1
    54    29    51    1
    55    29    52    1
    56    30    53    1
    57    30    54    1
    58    31    32   ar
    59    31    55    1
@<TRIPOS>MOLECULE
AD3CC01361870-I00-C00
 59 63 0 0 0
SMALL
GASTEIGER

@<TRIPOS>ATOM
      1 C           6.3550   -5.1790   -1.9650 C.3     1  UNL1       -0.0108
      2 C           6.0550   -5.0900   -0.4740 C.3     1  UNL1        0.1651
      3 C           6.9920   -5.9780    0.3340 C.3     1  UNL1       -0.0108
      4 O           4.6980   -5.5070   -0.2530 O.3     1  UNL1       -0.3465
      5 C           4.1360   -4.4960    0.5860 C.3     1  UNL1        0.0804
      6 C           4.8890   -3.2530    0.1750 C.3     1  UNL1        0.1191
      7 C           4.8580   -2.1460    1.2200 C.3     1  UNL1        0.1179
      8 O           3.5250   -1.7220    1.5070 O.3     1  UNL1       -0.4893
      9 C           2.9470   -0.7850    0.7010 C.ar    1  UNL1        0.1209
     10 C           3.5210   -0.1690   -0.3990 C.ar    1  UNL1       -0.0192
     11 C           2.7830    0.7650   -1.1340 C.ar    1  UNL1       -0.0472
     12 C           1.4600    1.1120   -0.7900 C.ar    1  UNL1        0.0257
     13 C           0.8820    0.5190    0.3440 C.ar    1  UNL1       -0.0328
     14 C           1.6400   -0.4390    1.0580 C.ar    1  UNL1       -0.0161
     15 C          -0.4990    0.7980    0.8860 C.3     1  UNL1       -0.0229
     16 C          -1.0630    2.1800    0.5910 C.3     1  UNL1       -0.0229
     17 C          -1.5490    2.2510   -0.8260 C.ar    1  UNL1       -0.0345
     18 C          -2.9270    2.3870   -1.0900 C.ar    1  UNL1       -0.0367
     19 C          -3.4220    2.4870   -2.3960 C.ar    1  UNL1        0.0317
     20 N          -4.7910    2.5810   -2.7010 N.pl3   1  UNL1       -0.3122
     21 C          -5.9490    2.2880   -1.9540 C.ar    1  UNL1        0.0672
     22 C          -5.9910    1.2870   -0.9760 C.ar    1  UNL1       -0.0350
     23 C          -7.1650    1.0470   -0.2540 C.ar    1  UNL1       -0.0245
     24 C          -8.3020    1.8050   -0.5100 C.ar    1  UNL1        0.1262
     25 F          -9.4220    1.5690    0.1850 F       1  UNL1       -0.2054
     26 C          -8.2960    2.7960   -1.4790 C.ar    1  UNL1        0.0106
     27 C          -7.1240    3.0250   -2.1910 C.ar    1  UNL1        0.1471
     28 F          -7.1170    3.9820   -3.1330 F       1  UNL1       -0.2035
     29 C          -2.5050    2.4420   -3.4510 C.ar    1  UNL1       -0.0399
     30 C          -1.1360    2.3060   -3.2070 C.ar    1  UNL1       -0.0489
     31 C          -0.6560    2.1930   -1.8960 C.ar    1  UNL1        0.0256
     32 C           0.8070    2.0830   -1.7190 C.2     1  UNL1        0.1937
     33 O           1.5120    2.7910   -2.4390 O.2     1  UNL1       -0.2866
     34 O           6.2220   -3.7310   -0.0370 O.3     1  UNL1       -0.3403
     35 H           7.3730   -4.8420   -2.1860 H       1  UNL1        0.0281
     36 H           5.6710   -4.5390   -2.5340 H       1  UNL1        0.0281
     37 H           6.2240   -6.2010   -2.3360 H       1  UNL1        0.0281
     38 H           8.0370   -5.6800    0.2000 H       1  UNL1        0.0281
     39 H           6.7690   -5.8990    1.4040 H       1  UNL1        0.0281
     40 H           6.8790   -7.0320    0.0570 H       1  UNL1        0.0281
     41 H           3.0570   -4.4240    0.4250 H       1  UNL1        0.0588
     42 H           4.3270   -4.7770    1.6280 H       1  UNL1        0.0588
     43 H           4.5080   -2.8960   -0.7900 H       1  UNL1        0.0654
     44 H           5.5180   -1.3100    0.9590 H       1  UNL1        0.0723
     45 H           5.2740   -2.5320    2.1590 H       1  UNL1        0.0723
     46 H           4.5310   -0.3850   -0.7300 H       1  UNL1        0.0654
     47 H           3.2560    1.2230   -2.0040 H       1  UNL1        0.0626
     48 H           1.2040   -0.9270    1.9310 H       1  UNL1        0.0657
     49 H          -0.4580    0.7060    1.9800 H       1  UNL1        0.0317
     50 H          -1.1780    0.0140    0.5270 H       1  UNL1        0.0317
     51 H          -0.3280    2.9730    0.7800 H       1  UNL1        0.0317
     52 H          -1.8980    2.3710    1.2760 H       1  UNL1        0.0317
     53 H          -3.6160    2.4570   -0.2520 H       1  UNL1        0.0639
     54 H          -4.9820    3.1910   -3.4940 H       1  UNL1        0.1522
     55 H          -5.1230    0.6620   -0.7880 H       1  UNL1        0.0638
     56 H          -7.2000    0.2660    0.5000 H       1  UNL1        0.0647
     57 H          -9.1850    3.3810   -1.6790 H       1  UNL1        0.0675
     58 H          -2.8500    2.5070   -4.4800 H       1  UNL1        0.0636
     59 H          -0.4430    2.2880   -4.0460 H       1  UNL1        0.0625
@<TRIPOS>BOND
     1     2     1    1
     2     1    35    1
     3     1    36    1
     4     1    37    1
     5     2     3    1
     6     2     4    1
     7     2    34    1
     8     3    38    1
     9     3    39    1
    10     3    40    1
    11     4     5    1
    12     5     6    1
    13     5    41    1
    14     5    42    1
    15     6     7    1
    16     6    34    1
    17     6    43    1
    18     7     8    1
    19     7    44    1
    20     7    45    1
    21     8     9    1
    22     9    10   ar
    23     9    14   ar
    24    10    11   ar
    25    10    46    1
    26    11    12   ar
    27    11    47    1
    28    12    13   ar
    29    12    32    1
    30    13    14   ar
    31    13    15    1
    32    14    48    1
    33    15    16    1
    34    15    49    1
    35    15    50    1
    36    16    17    1
    37    16    51    1
    38    16    52    1
    39    17    18   ar
    40    17    31   ar
    41    18    19   ar
    42    18    53    1
    43    19    20    1
    44    19    29   ar
    45    20    21    1
    46    20    54    1
    47    21    22   ar
    48    21    27   ar
    49    22    23   ar
    50    22    55    1
    51    23    24   ar
    52    23    56    1
    53    24    25    1
    54    24    26   ar
    55    26    27   ar
    56    26    57    1
    57    27    28    1
    58    29    30   ar
    59    29    58    1
    60    30    31   ar
    61    30    59    1
    62    31    32    1
    63    32    33    2
@<TRIPOS>MOLECULE
AD3CC01361875-I00-C00
 54 58 0 0 0
SMALL
GASTEIGER

@<TRIPOS>ATOM
      1 O          -3.9980    1.6580    1.5680 O.2     1  UNL1       -0.2866
      2 C          -2.8290    1.4260    1.2650 C.2     1  UNL1        0.1937
      3 C          -2.4310    1.3830   -0.1710 C.ar    1  UNL1        0.0256
      4 C          -3.1990    2.1980   -1.0220 C.ar    1  UNL1       -0.0489
      5 C          -2.9100    2.3000   -2.3850 C.ar    1  UNL1       -0.0399
      6 C          -1.8430    1.5970   -2.9430 C.ar    1  UNL1        0.0317
      7 N          -1.6120    1.7070   -4.3240 N.pl3   1  UNL1       -0.3122
      8 C          -0.9270    0.8860   -5.2410 C.ar    1  UNL1        0.0672
      9 C          -0.8160   -0.5020   -5.0870 C.ar    1  UNL1       -0.0350
     10 C          -0.1070   -1.2670   -6.0190 C.ar    1  UNL1       -0.0245
     11 C           0.4920   -0.6460   -7.1100 C.ar    1  UNL1        0.1262
     12 F           1.1690   -1.3850   -7.9980 F       1  UNL1       -0.2054
     13 C           0.3940    0.7240   -7.2950 C.ar    1  UNL1        0.0106
     14 C          -0.3150    1.4730   -6.3630 C.ar    1  UNL1        0.1471
     15 F          -0.4140    2.8000   -6.5430 F       1  UNL1       -0.2035
     16 C          -1.0970    0.7690   -2.0980 C.ar    1  UNL1       -0.0367
     17 C          -1.3770    0.6330   -0.7150 C.ar    1  UNL1       -0.0345
     18 C          -0.4930   -0.3330    0.0420 C.3     1  UNL1       -0.0229
     19 C          -1.0290   -0.8340    1.3750 C.3     1  UNL1       -0.0227
     20 C          -0.9180    0.2440    2.4240 C.ar    1  UNL1       -0.0328
     21 C          -1.8370    1.3070    2.3560 C.ar    1  UNL1        0.0257
     22 C          -1.8740    2.2930    3.3480 C.ar    1  UNL1       -0.0506
     23 C          -0.9690    2.2500    4.3990 C.ar    1  UNL1       -0.0608
     24 C          -0.0180    1.2320    4.4510 C.ar    1  UNL1       -0.0580
     25 C           0.0480    0.2290    3.4640 C.ar    1  UNL1       -0.0403
     26 C           1.1210   -0.8530    3.5620 C.3     1  UNL1       -0.0114
     27 C           0.6660   -1.9990    4.4770 C.3     1  UNL1       -0.0226
     28 C           1.7430   -3.0740    4.5560 C.3     1  UNL1        0.0482
     29 O           2.9870   -2.5230    4.9830 O.3     1  UNL1       -0.3797
     30 C           3.4800   -1.5290    4.0860 C.3     1  UNL1        0.0482
     31 C           2.5100   -0.3570    4.0080 C.3     1  UNL1       -0.0226
     32 H          -4.0350    2.7710   -0.6210 H       1  UNL1        0.0625
     33 H          -3.5370    2.9340   -3.0070 H       1  UNL1        0.0636
     34 H          -1.7910    2.6400   -4.6910 H       1  UNL1        0.1522
     35 H          -1.3090   -1.0070   -4.2610 H       1  UNL1        0.0638
     36 H          -0.0280   -2.3440   -5.9040 H       1  UNL1        0.0647
     37 H           0.8580    1.2010   -8.1490 H       1  UNL1        0.0675
     38 H          -0.2480    0.2240   -2.5080 H       1  UNL1        0.0639
     39 H           0.4940    0.1280    0.1730 H       1  UNL1        0.0317
     40 H          -0.3510   -1.2190   -0.5930 H       1  UNL1        0.0317
     41 H          -0.4860   -1.7360    1.6720 H       1  UNL1        0.0317
     42 H          -2.0720   -1.1660    1.2890 H       1  UNL1        0.0317
     43 H          -2.6140    3.0890    3.3030 H       1  UNL1        0.0625
     44 H          -1.0020    3.0080    5.1770 H       1  UNL1        0.0618
     45 H           0.6670    1.2310    5.2970 H       1  UNL1        0.0620
     46 H           1.2880   -1.2580    2.5570 H       1  UNL1        0.0350
     47 H           0.4780   -1.6080    5.4850 H       1  UNL1        0.0293
     48 H          -0.2720   -2.4390    4.1200 H       1  UNL1        0.0293
     49 H           1.8790   -3.5730    3.5890 H       1  UNL1        0.0560
     50 H           1.4500   -3.8400    5.2820 H       1  UNL1        0.0560
     51 H           4.4480   -1.1870    4.4660 H       1  UNL1        0.0560
     52 H           3.6510   -1.9770    3.1000 H       1  UNL1        0.0560
     53 H           2.4560    0.0980    5.0030 H       1  UNL1        0.0293
     54 H           2.8880    0.4040    3.3160 H       1  UNL1        0.0293
@<TRIPOS>BOND
     1     1     2    2
     2     2     3    1
     3     2    21    1
     4     3     4   ar
     5     3    17   ar
     6     4     5   ar
     7     4    32    1
     8     5     6   ar
     9     5    33    1
    10     6     7    1
    11     6    16   ar
    12     7     8    1
    13     7    34    1
    14     8     9   ar
    15     8    14   ar
    16     9    10   ar
    17     9    35    1
    18    10    11   ar
    19    10    36    1
    20    11    12    1
    21    11    13   ar
    22    13    14   ar
    23    13    37    1
    24    14    15    1
    25    16    17   ar
    26    16    38    1
    27    17    18    1
    28    18    19    1
    29    18    39    1
    30    18    40    1
    31    19    20    1
    32    19    41    1
    33    19    42    1
    34    20    21   ar
    35    20    25   ar
    36    21    22   ar
    37    22    23   ar
    38    22    43    1
    39    23    24   ar
    40    23    44    1
    41    24    25   ar
    42    24    45    1
    43    25    26    1
    44    26    27    1
    45    26    31    1
    46    26    46    1
    47    27    28    1
    48    27    47    1
    49    27    48    1
    50    28    29    1
    51    28    49    1
    52    28    50    1
    53    29    30    1
    54    30    31    1
    55    30    51    1
    56    30    52    1
    57    31    53    1
    58    31    54    1
@<TRIPOS>MOLECULE
AD3CC01361879-I00-C00
 61 65 0 0 0
SMALL
GASTEIGER

@<TRIPOS>ATOM
      1 C          -0.4990    1.1210    3.1720 C.3     1  UNL1       -0.0108
      2 C           0.8940    1.0990    3.7890 C.3     1  UNL1        0.1651
      3 C           1.0540   -0.0670    4.7550 C.3     1  UNL1       -0.0108
      4 O           1.1190    2.3250    4.5020 O.3     1  UNL1       -0.3465
      5 C           2.0430    3.0540    3.6920 C.3     1  UNL1        0.0804
      6 C           2.8510    1.9710    3.0220 C.3     1  UNL1        0.1191
      7 C           3.5450    2.4410    1.7490 C.3     1  UNL1        0.1179
      8 O           4.4360    1.4010    1.3070 O.3     1  UNL1       -0.4890
      9 C           4.4610    1.3170   -0.0600 C.ar    1  UNL1        0.1245
     10 C           5.1050    2.3140   -0.7970 C.ar    1  UNL1       -0.0196
     11 C           5.1440    2.2310   -2.1850 C.ar    1  UNL1       -0.0576
     12 C           4.5340    1.1550   -2.8280 C.ar    1  UNL1       -0.0504
     13 C           3.8860    0.1550   -2.0850 C.ar    1  UNL1        0.0289
     14 C           3.8770    0.2060   -0.6880 C.ar    1  UNL1        0.0054
     15 C           3.2370   -0.9000    0.1010 C.3     1  UNL1       -0.0195
     16 C           1.7250   -0.8430   -0.0560 C.3     1  UNL1       -0.0228
     17 C           1.1750   -1.3540   -1.3670 C.ar    1  UNL1       -0.0345
     18 C          -0.1730   -1.7890   -1.3340 C.ar    1  UNL1       -0.0367
     19 C          -0.8250   -2.3190   -2.4530 C.ar    1  UNL1        0.0316
     20 N          -2.1590   -2.7540   -2.4060 N.pl3   1  UNL1       -0.3130
     21 C          -3.2870   -2.2060   -1.7420 C.ar    1  UNL1        0.0523
     22 C          -3.3150   -0.9040   -1.2290 C.ar    1  UNL1       -0.0387
     23 C          -4.4710   -0.4000   -0.6280 C.ar    1  UNL1       -0.0599
     24 C          -5.6150   -1.1900   -0.5460 C.ar    1  UNL1       -0.0599
     25 C          -5.6000   -2.4930   -1.0420 C.ar    1  UNL1       -0.0392
     26 C          -4.4270   -3.0300   -1.5830 C.ar    1  UNL1        0.0460
     27 N          -4.4440   -4.3260   -2.1510 N.pl3   1  UNL1       -0.3565
     28 C          -0.0990   -2.4340   -3.6360 C.ar    1  UNL1       -0.0399
     29 C           1.2260   -1.9930   -3.7010 C.ar    1  UNL1       -0.0489
     30 C           1.8730   -1.4320   -2.5830 C.ar    1  UNL1        0.0256
     31 C           3.2650   -0.9520   -2.8410 C.2     1  UNL1        0.1938
     32 O           3.9060   -1.4270   -3.7780 O.2     1  UNL1       -0.2866
     33 O           1.8560    0.9750    2.7310 O.3     1  UNL1       -0.3403
     34 H          -0.5970    1.9610    2.4750 H       1  UNL1        0.0281
     35 H          -0.6960    0.2060    2.6030 H       1  UNL1        0.0281
     36 H          -1.2710    1.2440    3.9380 H       1  UNL1        0.0281
     37 H           2.0580   -0.0680    5.1940 H       1  UNL1        0.0281
     38 H           0.3410    0.0020    5.5830 H       1  UNL1        0.0281
     39 H           0.9240   -1.0270    4.2450 H       1  UNL1        0.0281
     40 H           1.4670    3.6500    2.9750 H       1  UNL1        0.0588
     41 H           2.6480    3.7230    4.3110 H       1  UNL1        0.0588
     42 H           3.5670    1.5150    3.7170 H       1  UNL1        0.0654
     43 H           4.1470    3.3340    1.9510 H       1  UNL1        0.0723
     44 H           2.7910    2.6760    0.9850 H       1  UNL1        0.0723
     45 H           5.5890    3.1440   -0.2910 H       1  UNL1        0.0654
     46 H           5.6520    2.9960   -2.7660 H       1  UNL1        0.0619
     47 H           4.5680    1.0890   -3.9140 H       1  UNL1        0.0625
     48 H           3.6420   -1.8710   -0.2130 H       1  UNL1        0.0318
     49 H           3.4890   -0.8120    1.1640 H       1  UNL1        0.0318
     50 H           1.3550    0.1790    0.0960 H       1  UNL1        0.0317
     51 H           1.3030   -1.4580    0.7510 H       1  UNL1        0.0317
     52 H          -0.7170   -1.7420   -0.3920 H       1  UNL1        0.0639
     53 H          -2.4760   -3.2370   -3.2440 H       1  UNL1        0.1522
     54 H          -2.4570   -0.2460   -1.3350 H       1  UNL1        0.0637
     55 H          -4.4850    0.6190   -0.2500 H       1  UNL1        0.0618
     56 H          -6.5240   -0.7870   -0.1070 H       1  UNL1        0.0618
     57 H          -6.5050   -3.0910   -0.9920 H       1  UNL1        0.0636
     58 H          -3.5140   -4.7400   -2.0950 H       1  UNL1        0.1424
     59 H          -5.1400   -4.9280   -1.7200 H       1  UNL1        0.1424
     60 H          -0.5570   -2.8500   -4.5290 H       1  UNL1        0.0636
     61 H           1.7530   -2.0800   -4.6510 H       1  UNL1        0.0625
@<TRIPOS>BOND
     1     2     1    1
     2     1    34    1
     3     1    35    1
     4     1    36    1
     5     2     3    1
     6     2     4    1
     7     2    33    1
     8     3    37    1
     9     3    38    1
    10     3    39    1
    11     4     5    1
    12     5     6    1
    13     5    40    1
    14     5    41    1
    15     6     7    1
    16     6    33    1
    17     6    42    1
    18     7     8    1
    19     7    43    1
    20     7    44    1
    21     8     9    1
    22     9    10   ar
    23     9    14   ar
    24    10    11   ar
    25    10    45    1
    26    11    12   ar
    27    11    46    1
    28    12    13   ar
    29    12    47    1
    30    13    14   ar
    31    13    31    1
    32    14    15    1
    33    15    16    1
    34    15    48    1
    35    15    49    1
    36    16    17    1
    37    16    50    1
    38    16    51    1
    39    17    18   ar
    40    17    30   ar
    41    18    19   ar
    42    18    52    1
    43    19    20    1
    44    19    28   ar
    45    20    21    1
    46    20    53    1
    47    21    22   ar
    48    21    26   ar
    49    22    23   ar
    50    22    54    1
    51    23    24   ar
    52    23    55    1
    53    24    25   ar
    54    24    56    1
    55    25    26   ar
    56    25    57    1
    57    26    27    1
    58    27    58    1
    59    27    59    1
    60    28    29   ar
    61    28    60    1
    62    29    30   ar
    63    29    61    1
    64    30    31    1
    65    31    32    2
@<TRIPOS>MOLECULE
AD3CC01361880-I00-C00
 54 57 0 0 0
SMALL
GASTEIGER

@<TRIPOS>ATOM
      1 N           1.6400    6.5590   -3.9600 N.pl3   1  UNL1       -0.3565
      2 C           2.1100    5.3670   -4.5620 C.ar    1  UNL1        0.0460
      3 C           2.3130    5.3200   -5.9450 C.ar    1  UNL1       -0.0392
      4 C           2.8480    4.1780   -6.5400 C.ar    1  UNL1       -0.0599
      5 C           3.2240    3.0930   -5.7520 C.ar    1  UNL1       -0.0599
      6 C           3.0890    3.1560   -4.3630 C.ar    1  UNL1       -0.0387
      7 C           2.5640    4.2990   -3.7500 C.ar    1  UNL1        0.0523
      8 N           2.4520    4.4420   -2.3420 N.pl3   1  UNL1       -0.3130
      9 C           2.5410    3.4810   -1.3210 C.ar    1  UNL1        0.0316
     10 C           3.2140    3.7910   -0.1340 C.ar    1  UNL1       -0.0399
     11 C           3.3120    2.8530    0.8960 C.ar    1  UNL1       -0.0489
     12 C           2.7160    1.5940    0.7610 C.ar    1  UNL1        0.0256
     13 C           2.0500    1.2570   -0.4150 C.ar    1  UNL1       -0.0345
     14 C           1.9600    2.2110   -1.4440 C.ar    1  UNL1       -0.0367
     15 C           1.4420   -0.1020   -0.5810 C.3     1  UNL1       -0.0228
     16 C           0.2440   -0.2690    0.3430 C.3     1  UNL1       -0.0195
     17 C           0.5200   -0.4630    1.8230 C.ar    1  UNL1        0.0054
     18 C          -0.5150   -1.0610    2.5960 C.ar    1  UNL1        0.1245
     19 O          -1.6780   -1.3390    1.9190 O.3     1  UNL1       -0.4890
     20 C          -2.7310   -2.0040    2.6330 C.3     1  UNL1        0.1176
     21 C          -3.8800   -2.2190    1.6410 C.3     1  UNL1        0.1120
     22 O          -4.4020   -0.9400    1.2370 O.3     1  UNL1       -0.3861
     23 C          -5.0250   -3.0200    2.2590 C.3     1  UNL1        0.0733
     24 O          -5.5770   -2.3110    3.3670 O.3     1  UNL1       -0.3923
     25 C          -0.3310   -1.3270    3.9570 C.ar    1  UNL1       -0.0196
     26 C           0.8690   -1.0040    4.5760 C.ar    1  UNL1       -0.0576
     27 C           1.8780   -0.3910    3.8420 C.ar    1  UNL1       -0.0504
     28 C           1.7160   -0.0950    2.4740 C.ar    1  UNL1        0.0289
     29 C           2.8710    0.6350    1.8720 C.2     1  UNL1        0.1938
     30 O           3.9930    0.5130    2.3610 O.2     1  UNL1       -0.2866
     31 H           1.0590    7.1050   -4.5880 H       1  UNL1        0.1424
     32 H           1.1460    6.3380   -3.0960 H       1  UNL1        0.1424
     33 H           2.0450    6.1680   -6.5680 H       1  UNL1        0.0636
     34 H           2.9830    4.1400   -7.6180 H       1  UNL1        0.0618
     35 H           3.6510    2.2070   -6.2150 H       1  UNL1        0.0618
     36 H           3.4490    2.3220   -3.7690 H       1  UNL1        0.0637
     37 H           2.7980    5.3640   -2.0830 H       1  UNL1        0.1522
     38 H           3.6860    4.7620   -0.0060 H       1  UNL1        0.0636
     39 H           3.8590    3.1030    1.8030 H       1  UNL1        0.0625
     40 H           1.4110    1.9680   -2.3520 H       1  UNL1        0.0639
     41 H           2.1970   -0.8800   -0.4110 H       1  UNL1        0.0317
     42 H           1.1070   -0.2290   -1.6190 H       1  UNL1        0.0317
     43 H          -0.2820   -1.1610   -0.0240 H       1  UNL1        0.0318
     44 H          -0.4440    0.5800    0.2320 H       1  UNL1        0.0318
     45 H          -2.3780   -2.9710    3.0070 H       1  UNL1        0.0723
     46 H          -3.0640   -1.3620    3.4560 H       1  UNL1        0.0723
     47 H          -3.5140   -2.7190    0.7380 H       1  UNL1        0.0650
     48 H          -3.6250   -0.4080    0.9760 H       1  UNL1        0.2100
     49 H          -4.6860   -4.0000    2.6080 H       1  UNL1        0.0584
     50 H          -5.8300   -3.1650    1.5320 H       1  UNL1        0.0584
     51 H          -5.7840   -1.4200    3.0170 H       1  UNL1        0.2095
     52 H          -1.1030   -1.7850    4.5670 H       1  UNL1        0.0654
     53 H           1.0160   -1.2150    5.6330 H       1  UNL1        0.0619
     54 H           2.8040   -0.1260    4.3540 H       1  UNL1        0.0625
@<TRIPOS>BOND
     1     1     2    1
     2     1    31    1
     3     1    32    1
     4     2     3   ar
     5     2     7   ar
     6     3     4   ar
     7     3    33    1
     8     4     5   ar
     9     4    34    1
    10     5     6   ar
    11     5    35    1
    12     6     7   ar
    13     6    36    1
    14     7     8    1
    15     8     9    1
    16     8    37    1
    17     9    10   ar
    18     9    14   ar
    19    10    11   ar
    20    10    38    1
    21    11    12   ar
    22    11    39    1
    23    12    13   ar
    24    12    29    1
    25    13    14   ar
    26    13    15    1
    27    14    40    1
    28    15    16    1
    29    15    41    1
    30    15    42    1
    31    16    17    1
    32    16    43    1
    33    16    44    1
    34    17    18   ar
    35    17    28   ar
    36    18    19    1
    37    18    25   ar
    38    19    20    1
    39    20    21    1
    40    20    45    1
    41    20    46    1
    42    21    22    1
    43    21    23    1
    44    21    47    1
    45    22    48    1
    46    23    24    1
    47    23    49    1
    48    23    50    1
    49    24    51    1
    50    25    26   ar
    51    25    52    1
    52    26    27   ar
    53    26    53    1
    54    27    28   ar
    55    27    54    1
    56    28    29    1
    57    29    30    2
@<TRIPOS>MOLECULE
AD3CC01369996-I00-C00
 64 69 0 0 0
SMALL
GASTEIGER

@<TRIPOS>ATOM
      1 C          -6.5240   -1.3090    1.8600 C.3     1  UNL1        0.0790
      2 O          -6.7840   -0.4750    0.7390 O.3     1  UNL1       -0.4913
      3 C          -5.7260    0.2230    0.2160 C.ar    1  UNL1        0.1658
      4 C          -4.4400    0.2640    0.7660 C.ar    1  UNL1       -0.0054
      5 C          -3.4120    1.0260    0.1760 C.ar    1  UNL1        0.0244
      6 C          -2.0880    1.0380    0.8080 C.ar    1  UNL1        0.1395
      7 N          -1.6740    0.2050    1.7430 N.ar    1  UNL1       -0.2271
      8 C          -0.3780    0.5620    2.0470 C.ar    1  UNL1        0.0972
      9 C           0.4100   -0.1740    3.0230 C.ar    1  UNL1        0.0026
     10 C           0.2250   -1.5610    3.1400 C.ar    1  UNL1       -0.0498
     11 C           0.9680   -2.3030    4.0600 C.ar    1  UNL1       -0.0258
     12 C           1.8940   -1.6570    4.8690 C.ar    1  UNL1        0.1234
     13 F           2.6090   -2.3670    5.7520 F       1  UNL1       -0.2055
     14 C           2.0850   -0.2830    4.7810 C.ar    1  UNL1       -0.0258
     15 C           1.3390    0.4600    3.8620 C.ar    1  UNL1       -0.0498
     16 C           0.0190    1.6440    1.2780 C.ar    1  UNL1        0.0750
     17 C           1.2670    2.3680    1.1270 C.ar    1  UNL1        0.0125
     18 C           1.3880    3.7240    1.4330 C.ar    1  UNL1       -0.0337
     19 C           2.6230    4.3340    1.2690 C.ar    1  UNL1        0.0305
     20 N           3.7490    3.7320    0.8210 N.ar    1  UNL1       -0.2374
     21 C           3.5720    2.4300    0.5340 C.ar    1  UNL1        0.1392
     22 N           4.5550    1.6000    0.0710 N.ar    1  UNL1       -0.3391
     23 C           4.0650    0.3300   -0.1370 C.ar    1  UNL1        0.0486
     24 C           4.8870   -0.7820   -0.6190 C.ar    1  UNL1       -0.0016
     25 C           5.9670   -0.5690   -1.4860 C.ar    1  UNL1       -0.0526
     26 C           6.7450   -1.6400   -1.9380 C.ar    1  UNL1       -0.0611
     27 C           6.4500   -2.9360   -1.5300 C.ar    1  UNL1       -0.0617
     28 C           5.3780   -3.1640   -0.6730 C.ar    1  UNL1       -0.0611
     29 C           4.6010   -2.0940   -0.2210 C.ar    1  UNL1       -0.0526
     30 C           2.7250    0.3710    0.2220 C.ar    1  UNL1       -0.0265
     31 C           2.4050    1.6890    0.6510 C.ar    1  UNL1        0.0284
     32 N          -1.0900    1.9360    0.5180 N.ar    1  UNL1       -0.3374
     33 C          -3.6860    1.7350   -1.0000 C.ar    1  UNL1       -0.0054
     34 C          -4.9580    1.6800   -1.5690 C.ar    1  UNL1        0.1658
     35 O          -5.1720    2.4080   -2.7110 O.3     1  UNL1       -0.4913
     36 C          -5.1970    1.5470   -3.8510 C.3     1  UNL1        0.0790
     37 C          -5.9850    0.9610   -0.9470 C.ar    1  UNL1        0.2035
     38 O          -7.2400    0.9190   -1.5050 O.3     1  UNL1       -0.4885
     39 C          -7.9740    2.0880   -1.1420 C.3     1  UNL1        0.0791
     40 H          -7.4540   -1.8290    2.1110 H       1  UNL1        0.0660
     41 H          -5.7700   -2.0690    1.6260 H       1  UNL1        0.0660
     42 H          -6.2310   -0.7150    2.7320 H       1  UNL1        0.0660
     43 H          -4.2030   -0.2860    1.6740 H       1  UNL1        0.0662
     44 H          -0.5020   -2.0680    2.5070 H       1  UNL1        0.0625
     45 H           0.8270   -3.3750    4.1490 H       1  UNL1        0.0646
     46 H           2.8080    0.2030    5.4270 H       1  UNL1        0.0646
     47 H           1.4880    1.5360    3.8200 H       1  UNL1        0.0625
     48 H           0.5470    4.2930    1.8150 H       1  UNL1        0.0639
     49 H           2.7450    5.3870    1.5130 H       1  UNL1        0.0830
     50 H           5.5080    1.8950   -0.0680 H       1  UNL1        0.1673
     51 H           6.2090    0.4290   -1.8390 H       1  UNL1        0.0624
     52 H           7.5770   -1.4600   -2.6130 H       1  UNL1        0.0618
     53 H           7.0540   -3.7680   -1.8810 H       1  UNL1        0.0618
     54 H           5.1430   -4.1740   -0.3520 H       1  UNL1        0.0618
     55 H           3.7750   -2.2960    0.4560 H       1  UNL1        0.0624
     56 H           2.0400   -0.4650    0.1800 H       1  UNL1        0.0645
     57 H          -1.1430    2.6710   -0.1700 H       1  UNL1        0.1674
     58 H          -2.9240    2.3200   -1.5050 H       1  UNL1        0.0662
     59 H          -5.5980    2.1190   -4.6930 H       1  UNL1        0.0660
     60 H          -4.1750    1.2350   -4.1060 H       1  UNL1        0.0660
     61 H          -5.8300    0.6610   -3.7130 H       1  UNL1        0.0660
     62 H          -9.0190    1.9260   -1.4180 H       1  UNL1        0.0660
     63 H          -7.6140    2.9620   -1.6930 H       1  UNL1        0.0660
     64 H          -7.9350    2.2770   -0.0640 H       1  UNL1        0.0660
@<TRIPOS>BOND
     1     1     2    1
     2     1    40    1
     3     1    41    1
     4     1    42    1
     5     2     3    1
     6     3     4   ar
     7     3    37   ar
     8     4     5   ar
     9     4    43    1
    10     5     6    1
    11     5    33   ar
    12     6     7   ar
    13     6    32   ar
    14     7     8   ar
    15     8     9    1
    16     8    16   ar
    17     9    10   ar
    18     9    15   ar
    19    10    11   ar
    20    10    44    1
    21    11    12   ar
    22    11    45    1
    23    12    13    1
    24    12    14   ar
    25    14    15   ar
    26    14    46    1
    27    15    47    1
    28    16    17    1
    29    16    32   ar
    30    17    18   ar
    31    17    31   ar
    32    18    19   ar
    33    18    48    1
    34    19    20   ar
    35    19    49    1
    36    20    21   ar
    37    21    22   ar
    38    21    31   ar
    39    22    23   ar
    40    22    50    1
    41    23    24    1
    42    23    30   ar
    43    24    25   ar
    44    24    29   ar
    45    25    26   ar
    46    25    51    1
    47    26    27   ar
    48    26    52    1
    49    27    28   ar
    50    27    53    1
    51    28    29   ar
    52    28    54    1
    53    29    55    1
    54    30    31   ar
    55    30    56    1
    56    32    57    1
    57    33    34   ar
    58    33    58    1
    59    34    35    1
    60    34    37   ar
    61    35    36    1
    62    36    59    1
    63    36    60    1
    64    36    61    1
    65    37    38    1
    66    38    39    1
    67    39    62    1
    68    39    63    1
    69    39    64    1
@<TRIPOS>MOLECULE
AD3CC01370001-I00-C02
 47 51 0 0 0
SMALL
GASTEIGER

@<TRIPOS>ATOM
      1 C          -0.0360   -1.3600    3.6370 C.3     1  UNL1        0.0387
      2 O           0.0340   -0.6300    2.4210 O.3     1  UNL1       -0.3624
      3 C          -0.9970   -1.0270    1.5220 C.3     1  UNL1        0.1256
      4 N          -0.8000   -0.3290    0.2640 N.ar    1  UNL1       -0.2978
      5 C          -1.4970    0.7890   -0.1570 C.ar    1  UNL1        0.1437
      6 C          -2.4620    1.5470    0.6410 C.ar    1  UNL1        0.0175
      7 C          -2.1350    2.0400    1.9120 C.ar    1  UNL1       -0.0511
      8 C          -3.0710    2.7630    2.6540 C.ar    1  UNL1       -0.0611
      9 C          -4.3380    3.0090    2.1280 C.ar    1  UNL1       -0.0617
     10 C          -4.6670    2.5430    0.8560 C.ar    1  UNL1       -0.0611
     11 C          -3.7300    1.8210    0.1140 C.ar    1  UNL1       -0.0511
     12 N          -1.1930    1.0630   -1.4110 N.ar    1  UNL1       -0.2268
     13 C          -0.2130    0.1720   -1.7760 C.ar    1  UNL1        0.0990
     14 C           0.3890    0.1990   -3.0980 C.ar    1  UNL1        0.0027
     15 C           0.7310    1.4340   -3.6690 C.ar    1  UNL1       -0.0498
     16 C           1.3090    1.4920   -4.9380 C.ar    1  UNL1       -0.0258
     17 C           1.5360    0.3140   -5.6390 C.ar    1  UNL1        0.1234
     18 F           2.0920    0.3670   -6.8570 F       1  UNL1       -0.2055
     19 C           1.1880   -0.9190   -5.1000 C.ar    1  UNL1       -0.0258
     20 C           0.6090   -0.9770   -3.8300 C.ar    1  UNL1       -0.0498
     21 C           0.0890   -0.6910   -0.7350 C.ar    1  UNL1        0.0994
     22 C           1.0940   -1.7250   -0.6030 C.ar    1  UNL1        0.1201
     23 N           0.6770   -2.9790   -0.2960 N.ar    1  UNL1       -0.2316
     24 C           1.6200   -3.9420   -0.2100 C.ar    1  UNL1        0.1191
     25 N           2.9510   -3.8270   -0.3890 N.ar    1  UNL1       -0.2163
     26 C           3.2880   -2.5630   -0.6860 C.ar    1  UNL1        0.1615
     27 N           4.5420   -2.0880   -0.9350 N.ar    1  UNL1       -0.3292
     28 C           4.4320   -0.7500   -1.1960 C.ar    1  UNL1        0.0957
     29 N           3.1840   -0.3400   -1.1260 N.ar    1  UNL1       -0.2321
     30 C           2.4500   -1.4660   -0.8120 C.ar    1  UNL1        0.1351
     31 H           0.1070   -2.4290    3.4510 H       1  UNL1        0.0524
     32 H          -0.9960   -1.1880    4.1330 H       1  UNL1        0.0524
     33 H           0.7640   -1.0110    4.2950 H       1  UNL1        0.0524
     34 H          -1.9810   -0.7770    1.9290 H       1  UNL1        0.0800
     35 H          -0.9750   -2.1050    1.3370 H       1  UNL1        0.0800
     36 H          -1.1400    1.8810    2.3240 H       1  UNL1        0.0625
     37 H          -2.8070    3.1440    3.6370 H       1  UNL1        0.0618
     38 H          -5.0650    3.5780    2.7020 H       1  UNL1        0.0618
     39 H          -5.6480    2.7490    0.4350 H       1  UNL1        0.0618
     40 H          -3.9870    1.4740   -0.8860 H       1  UNL1        0.0625
     41 H           0.5490    2.3540   -3.1150 H       1  UNL1        0.0625
     42 H           1.5810    2.4460   -5.3780 H       1  UNL1        0.0646
     43 H           1.3640   -1.8240   -5.6710 H       1  UNL1        0.0646
     44 H           0.3210   -1.9440   -3.4240 H       1  UNL1        0.0625
     45 H           1.2590   -4.9380    0.0320 H       1  UNL1        0.1048
     46 H           5.3880   -2.6380   -0.9270 H       1  UNL1        0.1682
     47 H           5.2880   -0.1310   -1.4290 H       1  UNL1        0.1027
@<TRIPOS>BOND
     1     1     2    1
     2     1    31    1
     3     1    32    1
     4     1    33    1
     5     2     3    1
     6     3     4    1
     7     3    34    1
     8     3    35    1
     9     4     5   ar
    10     4    21   ar
    11     5     6    1
    12     5    12   ar
    13     6     7   ar
    14     6    11   ar
    15     7     8   ar
    16     7    36    1
    17     8     9   ar
    18     8    37    1
    19     9    10   ar
    20     9    38    1
    21    10    11   ar
    22    10    39    1
    23    11    40    1
    24    12    13   ar
    25    13    14    1
    26    13    21   ar
    27    14    15   ar
    28    14    20   ar
    29    15    16   ar
    30    15    41    1
    31    16    17   ar
    32    16    42    1
    33    17    18    1
    34    17    19   ar
    35    19    20   ar
    36    19    43    1
    37    20    44    1
    38    21    22    1
    39    22    23   ar
    40    22    30   ar
    41    23    24   ar
    42    24    25   ar
    43    24    45    1
    44    25    26   ar
    45    26    27   ar
    46    26    30   ar
    47    27    28   ar
    48    27    46    1
    49    28    29   ar
    50    28    47    1
    51    29    30   ar
@<TRIPOS>MOLECULE
AD3CC01372204-I00-C00
 65 70 0 0 0
SMALL
GASTEIGER

@<TRIPOS>ATOM
      1 O           1.8030    4.2300   -2.2280 O.2     1  UNL1       -0.2699
      2 C           1.3160    3.3820   -1.4910 C.2     1  UNL1        0.2483
      3 N           0.5970    2.2640   -1.8710 N.am    1  UNL1       -0.2814
      4 C           0.3700    1.7840   -3.1760 C.ar    1  UNL1        0.0354
      5 C           0.8870    2.3690   -4.3290 C.ar    1  UNL1       -0.0404
      6 C           0.6250    1.8020   -5.5780 C.ar    1  UNL1       -0.0583
      7 C          -0.1470    0.6430   -5.6790 C.ar    1  UNL1       -0.0404
      8 C          -0.6800    0.0360   -4.5370 C.ar    1  UNL1        0.0331
      9 N          -1.4000   -1.1670   -4.6690 N.pl3   1  UNL1       -0.3143
     10 C          -1.6500   -2.2000   -3.7510 C.ar    1  UNL1        0.0348
     11 C          -2.8490   -2.9110   -3.8270 C.ar    1  UNL1       -0.0396
     12 C          -3.1630   -3.8870   -2.8750 C.ar    1  UNL1       -0.0456
     13 C          -2.2880   -4.1860   -1.8140 C.ar    1  UNL1        0.0640
     14 C          -1.0680   -3.5070   -1.7590 C.ar    1  UNL1        0.1335
     15 C          -0.7730   -2.5140   -2.7080 C.ar    1  UNL1        0.0020
     16 O          -0.0760   -3.6740   -0.8320 O.3     1  UNL1       -0.4866
     17 C           0.1230   -5.0240   -0.4270 C.3     1  UNL1        0.1153
     18 C          -0.7860   -5.3110    0.7230 C.ar    1  UNL1        0.0004
     19 C          -0.2670   -5.5200    2.0110 C.ar    1  UNL1       -0.0547
     20 C          -1.1170   -5.8050    3.0810 C.ar    1  UNL1       -0.0614
     21 C          -2.4910   -5.8890    2.8750 C.ar    1  UNL1       -0.0611
     22 C          -3.0150   -5.6780    1.6000 C.ar    1  UNL1       -0.0505
     23 C          -2.1690   -5.3720    0.5240 C.ar    1  UNL1        0.0288
     24 C          -2.7900   -5.1670   -0.8070 C.2     1  UNL1        0.1970
     25 O          -3.8030   -5.8190   -1.0630 O.2     1  UNL1       -0.2865
     26 C          -0.4120    0.6250   -3.2940 C.ar    1  UNL1       -0.0193
     27 C           1.4540    3.5510   -0.0150 C.ar    1  UNL1        0.0388
     28 C           1.4670    4.8410    0.5160 C.ar    1  UNL1       -0.0495
     29 C           1.5950    5.0150    1.8900 C.ar    1  UNL1       -0.0593
     30 C           1.7130    3.9030    2.7340 C.ar    1  UNL1       -0.0406
     31 C           1.7090    2.5930    2.2300 C.ar    1  UNL1        0.0305
     32 N           1.8490    1.4500    3.0310 N.pl3   1  UNL1       -0.3255
     33 C           2.3140    1.6240    4.4250 C.3     1  UNL1        0.0357
     34 C           2.6220    0.2530    5.0480 C.3     1  UNL1        0.0634
     35 O           1.4740   -0.6110    5.0060 O.3     1  UNL1       -0.3767
     36 C           1.0650   -0.8190    3.6450 C.3     1  UNL1        0.0634
     37 C           0.7050    0.5060    2.9500 C.3     1  UNL1        0.0357
     38 C           1.5980    2.4440    0.8370 C.ar    1  UNL1       -0.0285
     39 H           0.1490    1.7380   -1.1320 H       1  UNL1        0.1551
     40 H           1.5020    3.2630   -4.2880 H       1  UNL1        0.0636
     41 H           1.0370    2.2620   -6.4730 H       1  UNL1        0.0619
     42 H          -0.3140    0.2080   -6.6610 H       1  UNL1        0.0636
     43 H          -1.8830   -1.2610   -5.5560 H       1  UNL1        0.1522
     44 H          -3.5700   -2.6930   -4.6110 H       1  UNL1        0.0636
     45 H          -4.1230   -4.3980   -2.9540 H       1  UNL1        0.0626
     46 H           0.1870   -2.0070   -2.6430 H       1  UNL1        0.0673
     47 H          -0.0120   -5.7390   -1.2500 H       1  UNL1        0.0748
     48 H           1.1720   -5.1130   -0.1190 H       1  UNL1        0.0748
     49 H           0.8050   -5.4650    2.1910 H       1  UNL1        0.0622
     50 H          -0.7060   -5.9670    4.0750 H       1  UNL1        0.0618
     51 H          -3.1550   -6.1210    3.7050 H       1  UNL1        0.0618
     52 H          -4.0900   -5.7510    1.4460 H       1  UNL1        0.0625
     53 H          -0.8410    0.1820   -2.4000 H       1  UNL1        0.0655
     54 H           1.3790    5.7060   -0.1380 H       1  UNL1        0.0625
     55 H           1.6050    6.0170    2.3110 H       1  UNL1        0.0618
     56 H           1.8020    4.0930    3.7990 H       1  UNL1        0.0636
     57 H           1.5300    2.1150    5.0170 H       1  UNL1        0.0486
     58 H           3.2240    2.2340    4.4570 H       1  UNL1        0.0486
     59 H           2.9040    0.3770    6.0980 H       1  UNL1        0.0575
     60 H           3.4560   -0.2370    4.5310 H       1  UNL1        0.0575
     61 H           1.8680   -1.3370    3.1070 H       1  UNL1        0.0575
     62 H           0.1930   -1.4800    3.6580 H       1  UNL1        0.0575
     63 H          -0.1630    0.9550    3.4500 H       1  UNL1        0.0486
     64 H           0.4260    0.2830    1.9150 H       1  UNL1        0.0486
     65 H           1.6820    1.4470    0.4130 H       1  UNL1        0.0643
@<TRIPOS>BOND
     1     1     2    2
     2     2     3   am
     3     2    27    1
     4     3     4    1
     5     3    39    1
     6     4     5   ar
     7     4    26   ar
     8     5     6   ar
     9     5    40    1
    10     6     7   ar
    11     6    41    1
    12     7     8   ar
    13     7    42    1
    14     8     9    1
    15     8    26   ar
    16     9    10    1
    17     9    43    1
    18    10    11   ar
    19    10    15   ar
    20    11    12   ar
    21    11    44    1
    22    12    13   ar
    23    12    45    1
    24    13    14   ar
    25    13    24    1
    26    14    15   ar
    27    14    16    1
    28    15    46    1
    29    16    17    1
    30    17    18    1
    31    17    47    1
    32    17    48    1
    33    18    19   ar
    34    18    23   ar
    35    19    20   ar
    36    19    49    1
    37    20    21   ar
    38    20    50    1
    39    21    22   ar
    40    21    51    1
    41    22    23   ar
    42    22    52    1
    43    23    24    1
    44    24    25    2
    45    26    53    1
    46    27    28   ar
    47    27    38   ar
    48    28    29   ar
    49    28    54    1
    50    29    30   ar
    51    29    55    1
    52    30    31   ar
    53    30    56    1
    54    31    32    1
    55    31    38   ar
    56    32    33    1
    57    32    37    1
    58    33    34    1
    59    33    57    1
    60    33    58    1
    61    34    35    1
    62    34    59    1
    63    34    60    1
    64    35    36    1
    65    36    37    1
    66    36    61    1
    67    36    62    1
    68    37    63    1
    69    37    64    1
    70    38    65    1
@<TRIPOS>MOLECULE
AD3CC01419634-I00-C00
 41 43 0 0 0
SMALL
GASTEIGER

@<TRIPOS>ATOM
      1 C           2.8950   -0.6480   -0.2230 C.3     1  UNL1       -0.0124
      2 N           1.7810    0.0190   -0.9010 N.3     1  UNL1       -0.3004
      3 C           0.5680   -0.8130   -0.8060 C.3     1  UNL1        0.0271
      4 C          -0.6470   -0.1840   -1.4270 C.2     1  UNL1        0.0113
      5 C          -1.6920   -0.8300   -1.9860 C.2     1  UNL1       -0.0286
      6 C          -1.9280   -2.2800   -2.0540 C.ar    1  UNL1        0.0642
      7 C          -2.8810   -2.7850   -2.9370 C.ar    1  UNL1       -0.0363
      8 C          -3.1170   -4.1590   -2.9650 C.ar    1  UNL1       -0.0583
      9 C          -2.4020   -4.9870   -2.1100 C.ar    1  UNL1       -0.0436
     10 C          -1.4790   -4.4030   -1.2570 C.ar    1  UNL1        0.0282
     11 N          -1.2340   -3.0750   -1.2080 N.ar    1  UNL1       -0.2556
     12 C          -0.7210    1.3150   -1.4200 C.2     1  UNL1        0.1651
     13 O          -1.7820    1.8880   -1.6820 O.2     1  UNL1       -0.2920
     14 C           0.5590    2.1010   -1.1920 C.3     1  UNL1        0.0399
     15 C           0.2850    3.5270   -0.6850 C.3     1  UNL1        0.0006
     16 C          -0.2530    3.6130    0.7220 C.ar    1  UNL1        0.0420
     17 C          -1.6230    3.6740    0.9640 C.ar    1  UNL1       -0.0404
     18 C          -2.0730    3.7420    2.2800 C.ar    1  UNL1       -0.0586
     19 C          -1.1480    3.7500    3.3170 C.ar    1  UNL1       -0.0436
     20 C           0.1960    3.6880    2.9910 C.ar    1  UNL1        0.0279
     21 N           0.6620    3.6170    1.7240 N.ar    1  UNL1       -0.2599
     22 C           1.5310    1.3340   -0.2990 C.3     1  UNL1        0.0091
     23 H           3.8140   -0.0600   -0.3260 H       1  UNL1        0.0391
     24 H           2.7010   -0.8000    0.8450 H       1  UNL1        0.0391
     25 H           3.0970   -1.6230   -0.6800 H       1  UNL1        0.0391
     26 H           0.7990   -1.7520   -1.3200 H       1  UNL1        0.0477
     27 H           0.3410   -1.0480    0.2430 H       1  UNL1        0.0477
     28 H          -2.4940   -0.2430   -2.4300 H       1  UNL1        0.0643
     29 H          -3.4380   -2.1290   -3.5990 H       1  UNL1        0.0639
     30 H          -3.8550   -4.5750   -3.6470 H       1  UNL1        0.0619
     31 H          -2.5600   -6.0590   -2.1050 H       1  UNL1        0.0633
     32 H          -0.8950   -5.0060   -0.5670 H       1  UNL1        0.0830
     33 H           1.0120    2.2050   -2.1900 H       1  UNL1        0.0397
     34 H           1.2220    4.0990   -0.7210 H       1  UNL1        0.0335
     35 H          -0.3990    4.0500   -1.3660 H       1  UNL1        0.0335
     36 H          -2.3350    3.6610    0.1440 H       1  UNL1        0.0635
     37 H          -3.1380    3.7850    2.4900 H       1  UNL1        0.0619
     38 H          -1.4680    3.8020    4.3510 H       1  UNL1        0.0633
     39 H           0.9590    3.6920    3.7650 H       1  UNL1        0.0829
     40 H           1.1480    1.2130    0.7220 H       1  UNL1        0.0434
     41 H           2.4680    1.9020   -0.2370 H       1  UNL1        0.0434
@<TRIPOS>BOND
     1     1     2    1
     2     1    23    1
     3     1    24    1
     4     1    25    1
     5     2     3    1
     6     2    22    1
     7     3     4    1
     8     3    26    1
     9     3    27    1
    10     4     5    2
    11     4    12    1
    12     5     6    1
    13     5    28    1
    14     6     7   ar
    15     6    11   ar
    16     7     8   ar
    17     7    29    1
    18     8     9   ar
    19     8    30    1
    20     9    10   ar
    21     9    31    1
    22    10    11   ar
    23    10    32    1
    24    12    13    2
    25    12    14    1
    26    14    15    1
    27    14    22    1
    28    14    33    1
    29    15    16    1
    30    15    34    1
    31    15    35    1
    32    16    17   ar
    33    16    21   ar
    34    17    18   ar
    35    17    36    1
    36    18    19   ar
    37    18    37    1
    38    19    20   ar
    39    19    38    1
    40    20    21   ar
    41    20    39    1
    42    22    40    1
    43    22    41    1
@<TRIPOS>MOLECULE
AD3CC01458595-I00-C00
 36 38 0 0 0
SMALL
GASTEIGER

@<TRIPOS>ATOM
      1 C           4.6350   -2.8660    0.6730 C.3     1  UNL1        0.0126
      2 C           3.4340   -1.9530    0.6370 C.2     1  UNL1        0.2163
      3 O           2.7640   -1.7710    1.6470 O.2     1  UNL1       -0.2757
      4 N           3.2490   -1.3770   -0.5940 N.am    1  UNL1       -0.2547
      5 C           2.2300   -0.5060   -0.9430 C.ar    1  UNL1        0.2220
      6 N           2.3290   -0.0260   -2.1920 N.ar    1  UNL1       -0.2226
      7 C           1.3790    0.8430   -2.5800 C.ar    1  UNL1        0.0332
      8 C           0.3390    1.2360   -1.7750 C.ar    1  UNL1       -0.0172
      9 C           0.3100    0.6710   -0.5200 C.ar    1  UNL1        0.0815
     10 C          -0.7380    0.9900    0.4330 C.ar    1  UNL1        0.0699
     11 C          -2.1330    1.2580    0.2670 C.ar    1  UNL1        0.1227
     12 C          -2.9410    1.2080   -0.9470 C.ar    1  UNL1        0.0043
     13 C          -2.9010    0.0860   -1.7860 C.ar    1  UNL1       -0.0524
     14 C          -3.6640    0.0520   -2.9550 C.ar    1  UNL1       -0.0611
     15 C          -4.4760    1.1340   -3.2900 C.ar    1  UNL1       -0.0617
     16 C          -4.5330    2.2490   -2.4550 C.ar    1  UNL1       -0.0611
     17 C          -3.7710    2.2850   -1.2850 C.ar    1  UNL1       -0.0524
     18 N          -2.6960    1.5840    1.4410 N.ar    1  UNL1       -0.0774
     19 O          -1.7030    1.4700    2.3890 O.2     1  UNL1       -0.3587
     20 C          -0.5370    1.1100    1.7930 C.ar    1  UNL1        0.1440
     21 C           0.6230    0.9450    2.6940 C.3     1  UNL1       -0.0030
     22 N           1.2510   -0.1930   -0.0940 N.ar    1  UNL1       -0.2140
     23 H           5.4840   -2.3240    1.0970 H       1  UNL1        0.0323
     24 H           4.4060   -3.7350    1.2950 H       1  UNL1        0.0323
     25 H           4.8990   -3.2250   -0.3260 H       1  UNL1        0.0323
     26 H           3.9050   -1.5330   -1.3420 H       1  UNL1        0.1577
     27 H           1.4840    1.2300   -3.5900 H       1  UNL1        0.0831
     28 H          -0.3950    1.9510   -2.1220 H       1  UNL1        0.0654
     29 H          -2.2900   -0.7770   -1.5290 H       1  UNL1        0.0624
     30 H          -3.6340   -0.8250   -3.5980 H       1  UNL1        0.0618
     31 H          -5.0760    1.1040   -4.1960 H       1  UNL1        0.0618
     32 H          -5.1780    3.0870   -2.7080 H       1  UNL1        0.0618
     33 H          -3.8310    3.1570   -0.6350 H       1  UNL1        0.0624
     34 H           1.5250    1.3870    2.2590 H       1  UNL1        0.0309
     35 H           0.4460    1.4340    3.6570 H       1  UNL1        0.0309
     36 H           0.8080   -0.1160    2.8830 H       1  UNL1        0.0309
@<TRIPOS>BOND
     1     1     2    1
     2     1    23    1
     3     1    24    1
     4     1    25    1
     5     2     3    2
     6     2     4   am
     7     4     5    1
     8     4    26    1
     9     5     6   ar
    10     5    22   ar
    11     6     7   ar
    12     7     8   ar
    13     7    27    1
    14     8     9   ar
    15     8    28    1
    16     9    10    1
    17     9    22   ar
    18    10    11   ar
    19    10    20   ar
    20    11    12    1
    21    11    18   ar
    22    12    13   ar
    23    12    17   ar
    24    13    14   ar
    25    13    29    1
    26    14    15   ar
    27    14    30    1
    28    15    16   ar
    29    15    31    1
    30    16    17   ar
    31    16    32    1
    32    17    33    1
    33    18    19   ar
    34    19    20   ar
    35    20    21    1
    36    21    34    1
    37    21    35    1
    38    21    36    1
@<TRIPOS>MOLECULE
AD3CC01469736-I00-C00
 59 62 0 0 0
SMALL
GASTEIGER

@<TRIPOS>ATOM
      1 C           0.2610   -1.3610    3.8180 C.3     1  UNL1       -0.0524
      2 C           0.7150   -2.7750    4.1650 C.3     1  UNL1       -0.0038
      3 N           0.5270   -3.7220    3.0520 N.3     1  UNL1       -0.2996
      4 C           0.4910   -5.1140    3.5330 C.3     1  UNL1       -0.0038
      5 C           1.7890   -5.6620    4.1200 C.3     1  UNL1       -0.0524
      6 C           1.4960   -3.4910    1.9630 C.3     1  UNL1        0.0331
      7 C           1.2660   -4.3480    0.7040 C.3     1  UNL1        0.1022
      8 O           2.1720   -3.9720   -0.3400 O.3     1  UNL1       -0.4907
      9 C           1.8060   -2.9770   -1.2020 C.ar    1  UNL1        0.1213
     10 C           2.7060   -2.7580   -2.2450 C.ar    1  UNL1       -0.0195
     11 C           2.4630   -1.7730   -3.2050 C.ar    1  UNL1       -0.0512
     12 C           1.3090   -0.9820   -3.1310 C.ar    1  UNL1        0.0006
     13 C           0.4170   -1.1810   -2.0740 C.ar    1  UNL1        0.0322
     14 C           0.6610   -2.1870   -1.1200 C.ar    1  UNL1       -0.0087
     15 C          -0.8300   -0.3920   -1.9350 C.2     1  UNL1        0.1971
     16 O          -1.8150   -0.9720   -1.4780 O.2     1  UNL1       -0.2865
     17 C          -0.9360    1.0570   -2.2730 C.ar    1  UNL1        0.0640
     18 C          -2.0740    1.7220   -1.7830 C.ar    1  UNL1       -0.0456
     19 C          -2.2510    3.1000   -1.9620 C.ar    1  UNL1       -0.0396
     20 C          -1.2980    3.8590   -2.6370 C.ar    1  UNL1        0.0349
     21 N          -1.3840    5.2520   -2.7990 N.pl3   1  UNL1       -0.3122
     22 C          -2.1450    6.2390   -2.1420 C.ar    1  UNL1        0.0672
     23 C          -2.5580    6.1270   -0.8100 C.ar    1  UNL1       -0.0350
     24 C          -3.3270    7.1330   -0.2140 C.ar    1  UNL1       -0.0245
     25 C          -3.6830    8.2580   -0.9510 C.ar    1  UNL1        0.1262
     26 F          -4.4180    9.2170   -0.3740 F       1  UNL1       -0.2054
     27 C          -3.2820    8.4040   -2.2690 C.ar    1  UNL1        0.0106
     28 C          -2.5180    7.3980   -2.8490 C.ar    1  UNL1        0.1471
     29 F          -2.1260    7.5400   -4.1250 F       1  UNL1       -0.2035
     30 C          -0.1670    3.1950   -3.1290 C.ar    1  UNL1        0.0020
     31 C           0.0080    1.8080   -2.9780 C.ar    1  UNL1        0.1335
     32 O           1.1570    1.3440   -3.5570 O.3     1  UNL1       -0.4866
     33 C           1.0310    0.0620   -4.1620 C.3     1  UNL1        0.1153
     34 H           0.9110   -0.8880    3.0750 H       1  UNL1        0.0242
     35 H           0.2820   -0.7330    4.7150 H       1  UNL1        0.0242
     36 H          -0.7650   -1.3590    3.4330 H       1  UNL1        0.0242
     37 H           1.7590   -2.7560    4.5020 H       1  UNL1        0.0424
     38 H           0.1090   -3.0930    5.0230 H       1  UNL1        0.0424
     39 H          -0.2990   -5.2050    4.2890 H       1  UNL1        0.0424
     40 H           0.1630   -5.7730    2.7210 H       1  UNL1        0.0424
     41 H           1.6310   -6.6870    4.4700 H       1  UNL1        0.0242
     42 H           2.5920   -5.6890    3.3780 H       1  UNL1        0.0242
     43 H           2.1270   -5.0720    4.9770 H       1  UNL1        0.0242
     44 H           1.4490   -2.4430    1.6520 H       1  UNL1        0.0460
     45 H           2.5280   -3.6340    2.3110 H       1  UNL1        0.0460
     46 H           1.4990   -5.3940    0.9290 H       1  UNL1        0.0709
     47 H           0.2230   -4.3370    0.3670 H       1  UNL1        0.0709
     48 H           3.6060   -3.3650   -2.3140 H       1  UNL1        0.0654
     49 H           3.1830   -1.6320   -4.0080 H       1  UNL1        0.0623
     50 H          -0.0620   -2.3180   -0.3190 H       1  UNL1        0.0661
     51 H          -2.8400    1.1700   -1.2370 H       1  UNL1        0.0626
     52 H          -3.1610    3.5550   -1.5820 H       1  UNL1        0.0636
     53 H          -0.9950    5.5820   -3.6800 H       1  UNL1        0.1522
     54 H          -2.2600    5.2720   -0.2080 H       1  UNL1        0.0638
     55 H          -3.6410    7.0470    0.8210 H       1  UNL1        0.0647
     56 H          -3.5580    9.2840   -2.8370 H       1  UNL1        0.0675
     57 H           0.6040    3.7620   -3.6470 H       1  UNL1        0.0673
     58 H           1.7750    0.0150   -4.9660 H       1  UNL1        0.0748
     59 H           0.0560   -0.0850   -4.6470 H       1  UNL1        0.0748
@<TRIPOS>BOND
     1     1     2    1
     2     1    34    1
     3     1    35    1
     4     1    36    1
     5     2     3    1
     6     2    37    1
     7     2    38    1
     8     3     4    1
     9     3     6    1
    10     4     5    1
    11     4    39    1
    12     4    40    1
    13     5    41    1
    14     5    42    1
    15     5    43    1
    16     6     7    1
    17     6    44    1
    18     6    45    1
    19     7     8    1
    20     7    46    1
    21     7    47    1
    22     8     9    1
    23     9    10   ar
    24     9    14   ar
    25    10    11   ar
    26    10    48    1
    27    11    12   ar
    28    11    49    1
    29    12    13   ar
    30    12    33    1
    31    13    14   ar
    32    13    15    1
    33    14    50    1
    34    15    16    2
    35    15    17    1
    36    17    18   ar
    37    17    31   ar
    38    18    19   ar
    39    18    51    1
    40    19    20   ar
    41    19    52    1
    42    20    21    1
    43    20    30   ar
    44    21    22    1
    45    21    53    1
    46    22    23   ar
    47    22    28   ar
    48    23    24   ar
    49    23    54    1
    50    24    25   ar
    51    24    55    1
    52    25    26    1
    53    25    27   ar
    54    27    28   ar
    55    27    56    1
    56    28    29    1
    57    30    31   ar
    58    30    57    1
    59    31    32    1
    60    32    33    1
    61    33    58    1
    62    33    59    1
@<TRIPOS>MOLECULE
AD3CC01469746-I00-C00
 40 43 0 0 0
SMALL
GASTEIGER

@<TRIPOS>ATOM
      1 N          -1.5230   -5.7650    2.6990 N.pl3   1  UNL1       -0.3579
      2 C          -1.5440   -4.3760    2.5400 C.ar    1  UNL1        0.0252
      3 C          -1.1030   -3.5420    3.5670 C.ar    1  UNL1       -0.0406
      4 C          -1.0160   -2.1600    3.3780 C.ar    1  UNL1       -0.0529
      5 C          -1.3270   -1.5900    2.1360 C.ar    1  UNL1        0.0005
      6 C          -1.6900   -2.4270    1.0790 C.ar    1  UNL1        0.0305
      7 C          -1.7900   -3.8140    1.2860 C.ar    1  UNL1       -0.0298
      8 C          -2.0200   -1.9090   -0.2690 C.2     1  UNL1        0.1971
      9 O          -2.8860   -2.5100   -0.9060 O.2     1  UNL1       -0.2865
     10 C          -1.3410   -0.7390   -0.9010 C.ar    1  UNL1        0.0640
     11 C          -1.5660   -0.5660   -2.2780 C.ar    1  UNL1       -0.0456
     12 C          -0.9250    0.4470   -3.0000 C.ar    1  UNL1       -0.0396
     13 C          -0.0350    1.3210   -2.3720 C.ar    1  UNL1        0.0348
     14 N           0.6290    2.2890   -3.1420 N.pl3   1  UNL1       -0.3144
     15 C           1.8700    2.9310   -2.9830 C.ar    1  UNL1        0.0315
     16 C           2.9210    2.3860   -2.2310 C.ar    1  UNL1       -0.0378
     17 C           4.1230    3.0800   -2.0680 C.ar    1  UNL1       -0.0247
     18 C           4.2770    4.3300   -2.6500 C.ar    1  UNL1        0.1235
     19 F           5.4280    4.9970   -2.4930 F       1  UNL1       -0.2055
     20 C           3.2520    4.8980   -3.3940 C.ar    1  UNL1       -0.0247
     21 C           2.0520    4.2000   -3.5560 C.ar    1  UNL1       -0.0378
     22 C           0.1840    1.1500   -1.0020 C.ar    1  UNL1        0.0020
     23 C          -0.4760    0.1540   -0.2610 C.ar    1  UNL1        0.1335
     24 O          -0.1580    0.1730    1.0690 O.3     1  UNL1       -0.4866
     25 C          -1.2520   -0.1120    1.9330 C.3     1  UNL1        0.1153
     26 H          -1.6560   -6.0750    3.6570 H       1  UNL1        0.1423
     27 H          -2.1240   -6.2620    2.0480 H       1  UNL1        0.1423
     28 H          -0.8260   -3.9630    4.5310 H       1  UNL1        0.0636
     29 H          -0.6900   -1.5360    4.2080 H       1  UNL1        0.0622
     30 H          -2.0650   -4.4570    0.4530 H       1  UNL1        0.0643
     31 H          -2.2330   -1.2410   -2.8140 H       1  UNL1        0.0626
     32 H          -1.1140    0.5260   -4.0680 H       1  UNL1        0.0636
     33 H           0.1410    2.5490   -3.9920 H       1  UNL1        0.1522
     34 H           2.8290    1.3970   -1.7900 H       1  UNL1        0.0637
     35 H           4.9370    2.6490   -1.4940 H       1  UNL1        0.0647
     36 H           3.3880    5.8790   -3.8370 H       1  UNL1        0.0647
     37 H           1.2510    4.6630   -4.1260 H       1  UNL1        0.0637
     38 H           0.8460    1.8310   -0.4720 H       1  UNL1        0.0673
     39 H          -1.0490    0.3950    2.8840 H       1  UNL1        0.0748
     40 H          -2.2020    0.3030    1.5680 H       1  UNL1        0.0748
@<TRIPOS>BOND
     1     1     2    1
     2     1    26    1
     3     1    27    1
     4     2     3   ar
     5     2     7   ar
     6     3     4   ar
     7     3    28    1
     8     4     5   ar
     9     4    29    1
    10     5     6   ar
    11     5    25    1
    12     6     7   ar
    13     6     8    1
    14     7    30    1
    15     8     9    2
    16     8    10    1
    17    10    11   ar
    18    10    23   ar
    19    11    12   ar
    20    11    31    1
    21    12    13   ar
    22    12    32    1
    23    13    14    1
    24    13    22   ar
    25    14    15    1
    26    14    33    1
    27    15    16   ar
    28    15    21   ar
    29    16    17   ar
    30    16    34    1
    31    17    18   ar
    32    17    35    1
    33    18    19    1
    34    18    20   ar
    35    20    21   ar
    36    20    36    1
    37    21    37    1
    38    22    23   ar
    39    22    38    1
    40    23    24    1
    41    24    25    1
    42    25    39    1
    43    25    40    1
@<TRIPOS>MOLECULE
AD3CC01470407-I00-C00
 59 63 0 0 0
SMALL
GASTEIGER

@<TRIPOS>ATOM
      1 O          -4.4010   -0.6930   -0.6820 O.2     1  UNL1       -0.2865
      2 C          -3.2600   -0.5280   -1.1160 C.2     1  UNL1        0.1970
      3 C          -2.1540   -0.5230   -0.1290 C.ar    1  UNL1        0.0290
      4 C          -2.4140   -0.0020    1.1460 C.ar    1  UNL1       -0.0471
      5 C          -1.4130    0.0320    2.1210 C.ar    1  UNL1       -0.0192
      6 C          -0.1440   -0.4630    1.8320 C.ar    1  UNL1        0.1209
      7 O           0.9230   -0.4800    2.6870 O.3     1  UNL1       -0.4919
      8 C           0.8360    0.3640    3.8330 C.3     1  UNL1        0.0898
      9 C           2.2000    0.3970    4.5280 C.3     1  UNL1       -0.0157
     10 C           2.6880   -0.9710    5.0440 C.3     1  UNL1       -0.0338
     11 C           4.1320   -0.8520    5.5590 C.3     1  UNL1       -0.0264
     12 C           4.5950   -2.1520    6.2060 C.3     1  UNL1        0.0479
     13 O           3.7080   -2.5360    7.2550 O.3     1  UNL1       -0.3797
     14 C           2.3920   -2.7910    6.7680 C.3     1  UNL1        0.0479
     15 C           1.7890   -1.5310    6.1570 C.3     1  UNL1       -0.0264
     16 C           0.1050   -1.0150    0.5720 C.ar    1  UNL1       -0.0129
     17 C          -0.8950   -1.0520   -0.4160 C.ar    1  UNL1        0.0039
     18 C          -0.6160   -1.6360   -1.7630 C.3     1  UNL1        0.1154
     19 O          -0.6100   -0.5820   -2.7200 O.3     1  UNL1       -0.4866
     20 C          -1.8370   -0.2930   -3.2500 C.ar    1  UNL1        0.1335
     21 C          -1.7810    0.0530   -4.6130 C.ar    1  UNL1        0.0020
     22 C          -2.9300    0.3500   -5.3490 C.ar    1  UNL1        0.0349
     23 N          -2.9170    0.7330   -6.7010 N.pl3   1  UNL1       -0.3122
     24 C          -1.8650    1.1140   -7.5630 C.ar    1  UNL1        0.0672
     25 C          -0.7400    1.8270   -7.1280 C.ar    1  UNL1       -0.0350
     26 C           0.2840    2.1560   -8.0220 C.ar    1  UNL1       -0.0245
     27 C           0.1790    1.7840   -9.3580 C.ar    1  UNL1        0.1262
     28 F           1.1590    2.1020  -10.2060 F       1  UNL1       -0.2054
     29 C          -0.9300    1.0920   -9.8230 C.ar    1  UNL1        0.0106
     30 C          -1.9370    0.7670   -8.9240 C.ar    1  UNL1        0.1471
     31 F          -3.0130    0.0970   -9.3730 F       1  UNL1       -0.2035
     32 C          -4.1540    0.3160   -4.6780 C.ar    1  UNL1       -0.0396
     33 C          -4.2220   -0.0030   -3.3160 C.ar    1  UNL1       -0.0456
     34 C          -3.0630   -0.2970   -2.5770 C.ar    1  UNL1        0.0640
     35 H          -3.4030    0.3840    1.3850 H       1  UNL1        0.0626
     36 H          -1.6610    0.4410    3.0940 H       1  UNL1        0.0654
     37 H           0.5850    1.3880    3.5230 H       1  UNL1        0.0696
     38 H           0.0660   -0.0060    4.5240 H       1  UNL1        0.0696
     39 H           2.1540    1.1070    5.3610 H       1  UNL1        0.0301
     40 H           2.9390    0.7820    3.8140 H       1  UNL1        0.0301
     41 H           2.6900   -1.6860    4.2090 H       1  UNL1        0.0303
     42 H           4.1830   -0.0470    6.3050 H       1  UNL1        0.0290
     43 H           4.8090   -0.5870    4.7380 H       1  UNL1        0.0290
     44 H           4.6660   -2.9610    5.4690 H       1  UNL1        0.0560
     45 H           5.5890   -2.0140    6.6440 H       1  UNL1        0.0560
     46 H           1.7840   -3.1250    7.6140 H       1  UNL1        0.0560
     47 H           2.4220   -3.6110    6.0390 H       1  UNL1        0.0560
     48 H           0.7880   -1.7600    5.7760 H       1  UNL1        0.0290
     49 H           1.6800   -0.7730    6.9440 H       1  UNL1        0.0290
     50 H           1.0970   -1.4110    0.3620 H       1  UNL1        0.0658
     51 H          -1.3210   -2.4380   -2.0200 H       1  UNL1        0.0748
     52 H           0.3800   -2.0930   -1.7840 H       1  UNL1        0.0748
     53 H          -0.8090    0.0350   -5.0990 H       1  UNL1        0.0673
     54 H          -3.7290    0.3980   -7.2170 H       1  UNL1        0.1522
     55 H          -0.6620    2.1590   -6.0950 H       1  UNL1        0.0638
     56 H           1.1560    2.7100   -7.6850 H       1  UNL1        0.0647
     57 H          -1.0110    0.8090  -10.8640 H       1  UNL1        0.0675
     58 H          -5.0750    0.5610   -5.2040 H       1  UNL1        0.0636
     59 H          -5.1960    0.0040   -2.8270 H       1  UNL1        0.0626
@<TRIPOS>BOND
     1     1     2    2
     2     2     3    1
     3     2    34    1
     4     3     4   ar
     5     3    17   ar
     6     4     5   ar
     7     4    35    1
     8     5     6   ar
     9     5    36    1
    10     6     7    1
    11     6    16   ar
    12     7     8    1
    13     8     9    1
    14     8    37    1
    15     8    38    1
    16     9    10    1
    17     9    39    1
    18     9    40    1
    19    10    11    1
    20    10    15    1
    21    10    41    1
    22    11    12    1
    23    11    42    1
    24    11    43    1
    25    12    13    1
    26    12    44    1
    27    12    45    1
    28    13    14    1
    29    14    15    1
    30    14    46    1
    31    14    47    1
    32    15    48    1
    33    15    49    1
    34    16    17   ar
    35    16    50    1
    36    17    18    1
    37    18    19    1
    38    18    51    1
    39    18    52    1
    40    19    20    1
    41    20    21   ar
    42    20    34   ar
    43    21    22   ar
    44    21    53    1
    45    22    23    1
    46    22    32   ar
    47    23    24    1
    48    23    54    1
    49    24    25   ar
    50    24    30   ar
    51    25    26   ar
    52    25    55    1
    53    26    27   ar
    54    26    56    1
    55    27    28    1
    56    27    29   ar
    57    29    30   ar
    58    29    57    1
    59    30    31    1
    60    32    33   ar
    61    32    58    1
    62    33    34   ar
    63    33    59    1
@<TRIPOS>MOLECULE
AD3CC01470413-I00-C00
 44 47 0 0 0
SMALL
GASTEIGER

@<TRIPOS>ATOM
      1 C          -4.9640   -2.7770    0.6190 C.3     1  UNL1        0.0788
      2 O          -3.5700   -2.6220    0.3820 O.3     1  UNL1       -0.4947
      3 C          -3.1680   -2.3540   -0.9010 C.ar    1  UNL1        0.1272
      4 C          -4.0290   -2.3210   -2.0030 C.ar    1  UNL1       -0.0195
      5 C          -3.5350   -2.0560   -3.2790 C.ar    1  UNL1       -0.0576
      6 C          -2.1770   -1.8170   -3.4600 C.ar    1  UNL1       -0.0503
      7 C          -1.3020   -1.8320   -2.3640 C.ar    1  UNL1        0.0323
      8 C          -1.7890   -2.1140   -1.0800 C.ar    1  UNL1        0.0420
      9 C          -0.8270   -2.1550    0.0670 C.3     1  UNL1        0.1187
     10 O          -0.3480   -0.8330    0.3040 O.3     1  UNL1       -0.4865
     11 C           0.7760   -0.5100   -0.4030 C.ar    1  UNL1        0.1335
     12 C           1.6880    0.2730    0.3240 C.ar    1  UNL1        0.0020
     13 C           2.9080    0.6820   -0.2210 C.ar    1  UNL1        0.0349
     14 N           3.8350    1.4520    0.4990 N.pl3   1  UNL1       -0.3130
     15 C           3.6400    2.5250    1.4070 C.ar    1  UNL1        0.0524
     16 C           2.4270    3.2150    1.5270 C.ar    1  UNL1       -0.0360
     17 C           2.3110    4.2950    2.4040 C.ar    1  UNL1       -0.0246
     18 C           3.4120    4.6930    3.1500 C.ar    1  UNL1        0.1253
     19 F           3.3070    5.7510    3.9650 F       1  UNL1       -0.2054
     20 C           4.6240    4.0180    3.0600 C.ar    1  UNL1       -0.0040
     21 C           4.7290    2.8940    2.2380 C.ar    1  UNL1        0.0487
     22 N           5.9800    2.2490    2.0850 N.pl3   1  UNL1       -0.3565
     23 C           3.2080    0.2790   -1.5230 C.ar    1  UNL1       -0.0396
     24 C           2.2950   -0.4770   -2.2660 C.ar    1  UNL1       -0.0456
     25 C           1.0570   -0.8690   -1.7240 C.ar    1  UNL1        0.0640
     26 C           0.1360   -1.5950   -2.6440 C.2     1  UNL1        0.1971
     27 O           0.5710   -1.9950   -3.7250 O.2     1  UNL1       -0.2865
     28 H          -5.3550   -3.6580    0.1000 H       1  UNL1        0.0660
     29 H          -5.5160   -1.8730    0.3410 H       1  UNL1        0.0660
     30 H          -5.1040   -2.9340    1.6930 H       1  UNL1        0.0660
     31 H          -5.0940   -2.5060   -1.9050 H       1  UNL1        0.0654
     32 H          -4.2080   -2.0400   -4.1330 H       1  UNL1        0.0619
     33 H          -1.7970   -1.6200   -4.4610 H       1  UNL1        0.0625
     34 H          -0.0150   -2.8730   -0.1120 H       1  UNL1        0.0749
     35 H          -1.3030   -2.4860    0.9950 H       1  UNL1        0.0749
     36 H           1.4450    0.5300    1.3530 H       1  UNL1        0.0673
     37 H           4.7350    1.5700    0.0390 H       1  UNL1        0.1522
     38 H           1.5730    2.9560    0.9070 H       1  UNL1        0.0637
     39 H           1.3780    4.8430    2.4860 H       1  UNL1        0.0647
     40 H           5.4670    4.3700    3.6440 H       1  UNL1        0.0665
     41 H           6.5780    2.3550    2.8990 H       1  UNL1        0.1424
     42 H           5.8410    1.2640    1.8580 H       1  UNL1        0.1424
     43 H           4.1480    0.5670   -1.9890 H       1  UNL1        0.0636
     44 H           2.5540   -0.7450   -3.2900 H       1  UNL1        0.0626
@<TRIPOS>BOND
     1     1     2    1
     2     1    28    1
     3     1    29    1
     4     1    30    1
     5     2     3    1
     6     3     4   ar
     7     3     8   ar
     8     4     5   ar
     9     4    31    1
    10     5     6   ar
    11     5    32    1
    12     6     7   ar
    13     6    33    1
    14     7     8   ar
    15     7    26    1
    16     8     9    1
    17     9    10    1
    18     9    34    1
    19     9    35    1
    20    10    11    1
    21    11    12   ar
    22    11    25   ar
    23    12    13   ar
    24    12    36    1
    25    13    14    1
    26    13    23   ar
    27    14    15    1
    28    14    37    1
    29    15    16   ar
    30    15    21   ar
    31    16    17   ar
    32    16    38    1
    33    17    18   ar
    34    17    39    1
    35    18    19    1
    36    18    20   ar
    37    20    21   ar
    38    20    40    1
    39    21    22    1
    40    22    41    1
    41    22    42    1
    42    23    24   ar
    43    23    43    1
    44    24    25   ar
    45    24    44    1
    46    25    26    1
    47    26    27    2
@<TRIPOS>MOLECULE
AD3CC01478576-I00-C00
 52 55 0 0 0
SMALL
GASTEIGER

@<TRIPOS>ATOM
      1 O           3.5940    2.0510   -2.5980 O.2     1  UNL1       -0.2699
      2 C           2.5970    1.4140   -2.2860 C.2     1  UNL1        0.2484
      3 N           1.5670    1.8270   -1.4610 N.am    1  UNL1       -0.2815
      4 C           1.4790    3.0390   -0.7450 C.ar    1  UNL1        0.0341
      5 C           2.4920    3.9950   -0.7050 C.ar    1  UNL1       -0.0391
      6 C           2.3240    5.1690    0.0340 C.ar    1  UNL1       -0.0413
      7 C           1.1430    5.3960    0.7420 C.ar    1  UNL1        0.0475
      8 CL          1.0090    6.8740    1.6290 Cl      1  UNL1       -0.0831
      9 C           0.1070    4.4490    0.7270 C.ar    1  UNL1        0.0097
     10 C          -1.1740    4.6990    1.4970 C.3     1  UNL1        0.1161
     11 O          -2.0790    3.5960    1.3870 O.3     1  UNL1       -0.4858
     12 C          -3.2710    3.7070    2.0420 C.ar    1  UNL1        0.1390
     13 C          -3.7020    4.7870    2.8080 C.ar    1  UNL1       -0.0170
     14 C          -4.9580    4.7400    3.4160 C.ar    1  UNL1       -0.0401
     15 C          -5.7410    3.6110    3.2370 C.ar    1  UNL1        0.0278
     16 N          -5.3580    2.5460    2.5040 N.ar    1  UNL1       -0.2596
     17 C          -4.1350    2.6230    1.9260 C.ar    1  UNL1        0.0692
     18 C           0.2960    3.2730   -0.0270 C.ar    1  UNL1       -0.0327
     19 C           2.4220    0.0570   -2.8710 C.ar    1  UNL1        0.0401
     20 C           2.8420   -0.1610   -4.1830 C.ar    1  UNL1       -0.0311
     21 C           2.6670   -1.4180   -4.7470 C.ar    1  UNL1        0.0434
     22 CL          3.1600   -1.6970   -6.3730 Cl      1  UNL1       -0.0835
     23 C           2.0930   -2.4610   -4.0120 C.ar    1  UNL1       -0.0223
     24 C           1.6970   -2.2770   -2.6800 C.ar    1  UNL1        0.0319
     25 N           1.1190   -3.2860   -1.8920 N.pl3   1  UNL1       -0.3255
     26 C           1.9350   -3.6580   -0.7060 C.3     1  UNL1        0.0357
     27 C           1.1250   -4.5830    0.2190 C.3     1  UNL1        0.0634
     28 O           0.6540   -5.7490   -0.4750 O.3     1  UNL1       -0.3767
     29 C          -0.1820   -5.3620   -1.5770 C.3     1  UNL1        0.0634
     30 C           0.5880   -4.4870   -2.5790 C.3     1  UNL1        0.0357
     31 C           1.8690   -0.9960   -2.1260 C.ar    1  UNL1       -0.0284
     32 H           0.7520    1.2290   -1.4090 H       1  UNL1        0.1551
     33 H           3.4290    3.8590   -1.2360 H       1  UNL1        0.0636
     34 H           3.1260    5.9030    0.0480 H       1  UNL1        0.0633
     35 H          -0.9170    4.8420    2.5540 H       1  UNL1        0.0748
     36 H          -1.6510    5.5960    1.0840 H       1  UNL1        0.0748
     37 H          -3.0960    5.6740    2.9530 H       1  UNL1        0.0655
     38 H          -5.3170    5.5680    4.0170 H       1  UNL1        0.0634
     39 H          -6.7250    3.5330    3.6920 H       1  UNL1        0.0829
     40 H          -3.8530    1.7510    1.3410 H       1  UNL1        0.0867
     41 H          -0.4970    2.5290   -0.0550 H       1  UNL1        0.0640
     42 H           3.2920    0.6460   -4.7560 H       1  UNL1        0.0640
     43 H           1.9850   -3.4260   -4.4970 H       1  UNL1        0.0651
     44 H           2.2430   -2.7800   -0.1280 H       1  UNL1        0.0486
     45 H           2.8380   -4.1810   -1.0450 H       1  UNL1        0.0486
     46 H           1.7550   -4.9230    1.0470 H       1  UNL1        0.0575
     47 H           0.2660   -4.0540    0.6480 H       1  UNL1        0.0575
     48 H          -1.0640   -4.8370   -1.1910 H       1  UNL1        0.0575
     49 H          -0.5250   -6.2770   -2.0700 H       1  UNL1        0.0575
     50 H           1.4180   -5.0740   -2.9940 H       1  UNL1        0.0486
     51 H          -0.0910   -4.1990   -3.3900 H       1  UNL1        0.0486
     52 H           1.5650   -0.8260   -1.0960 H       1  UNL1        0.0644
@<TRIPOS>BOND
     1     1     2    2
     2     2     3   am
     3     2    19    1
     4     3     4    1
     5     3    32    1
     6     4     5   ar
     7     4    18   ar
     8     5     6   ar
     9     5    33    1
    10     6     7   ar
    11     6    34    1
    12     7     8    1
    13     7     9   ar
    14     9    10    1
    15     9    18   ar
    16    10    11    1
    17    10    35    1
    18    10    36    1
    19    11    12    1
    20    12    13   ar
    21    12    17   ar
    22    13    14   ar
    23    13    37    1
    24    14    15   ar
    25    14    38    1
    26    15    16   ar
    27    15    39    1
    28    16    17   ar
    29    17    40    1
    30    18    41    1
    31    19    20   ar
    32    19    31   ar
    33    20    21   ar
    34    20    42    1
    35    21    22    1
    36    21    23   ar
    37    23    24   ar
    38    23    43    1
    39    24    25    1
    40    24    31   ar
    41    25    26    1
    42    25    30    1
    43    26    27    1
    44    26    44    1
    45    26    45    1
    46    27    28    1
    47    27    46    1
    48    27    47    1
    49    28    29    1
    50    29    30    1
    51    29    48    1
    52    29    49    1
    53    30    50    1
    54    30    51    1
    55    31    52    1
@<TRIPOS>MOLECULE
AD3CC01483041-I00-C01
 60 63 0 0 0
SMALL
GASTEIGER

@<TRIPOS>ATOM
      1 C           1.1950   -2.8200   -2.4900 C.3     1  UNL1       -0.0411
      2 C           0.3480   -2.7620   -3.7440 C.3     1  UNL1        0.0541
      3 O          -0.9900   -2.4670   -3.3790 O.3     1  UNL1       -0.3081
      4 P          -2.1010   -2.4660   -4.5430 P.3     1  UNL1        0.3346
      5 O          -2.0580   -3.6710   -5.4310 O.2     1  UNL1       -0.2584
      6 C          -1.9510   -0.9080   -5.3960 C.3     1  UNL1        0.0693
      7 C          -2.2920    0.3100   -4.5580 C.3     1  UNL1        0.0541
      8 N          -1.3730    0.5370   -3.4690 N.ar    1  UNL1       -0.2504
      9 C          -1.6280    0.5010   -2.1350 C.ar    1  UNL1        0.0564
     10 C          -0.4120    0.7920   -1.5650 C.ar    1  UNL1        0.1477
     11 C          -0.1370    0.8620   -0.0370 C.ar    1  UNL1        0.1634
     12 N          -1.0670    0.6560    0.8720 N.ar    1  UNL1       -0.2252
     13 C          -0.4560    0.8410    2.0890 C.ar    1  UNL1        0.0974
     14 C          -1.1900    0.6830    3.3360 C.ar    1  UNL1        0.0026
     15 C          -2.1710   -0.3180    3.4240 C.ar    1  UNL1       -0.0498
     16 C          -2.8990   -0.5010    4.6010 C.ar    1  UNL1       -0.0258
     17 C          -2.6530    0.3240    5.6910 C.ar    1  UNL1        0.1234
     18 F          -3.3500    0.1510    6.8210 F       1  UNL1       -0.2055
     19 C          -1.6980    1.3310    5.6230 C.ar    1  UNL1       -0.0258
     20 C          -0.9700    1.5150    4.4440 C.ar    1  UNL1       -0.0498
     21 C           0.8900    1.1510    1.9290 C.ar    1  UNL1        0.0768
     22 C           1.9530    1.3840    2.9020 C.ar    1  UNL1        0.0035
     23 C           2.3750    0.3550    3.7430 C.ar    1  UNL1       -0.0344
     24 C           3.3790    0.6250    4.6570 C.ar    1  UNL1        0.0282
     25 N           3.9760    1.8300    4.7820 N.ar    1  UNL1       -0.2632
     26 C           3.5460    2.8110    3.9610 C.ar    1  UNL1        0.0282
     27 C           2.5490    2.6410    3.0160 C.ar    1  UNL1       -0.0344
     28 N           1.0740    1.1330    0.5570 N.ar    1  UNL1       -0.3249
     29 C           2.3180    1.3080   -0.1570 C.3     1  UNL1        0.0139
     30 N           0.5140    1.0090   -2.5490 N.ar    1  UNL1       -0.1264
     31 N          -0.0900    0.8560   -3.7210 N.ar    1  UNL1       -0.0650
     32 O          -3.4790   -2.3190   -3.7160 O.3     1  UNL1       -0.3081
     33 C          -3.8960   -3.4480   -2.9640 C.3     1  UNL1        0.0541
     34 C          -5.1050   -3.0590   -2.1390 C.3     1  UNL1       -0.0411
     35 H           1.1640   -1.8660   -1.9550 H       1  UNL1        0.0252
     36 H           0.8140   -3.5820   -1.8020 H       1  UNL1        0.0252
     37 H           2.2360   -3.0520   -2.7330 H       1  UNL1        0.0252
     38 H           0.3810   -3.7280   -4.2590 H       1  UNL1        0.0562
     39 H           0.7220   -1.9880   -4.4200 H       1  UNL1        0.0562
     40 H          -2.6440   -0.9360   -6.2460 H       1  UNL1        0.0406
     41 H          -0.9450   -0.8230   -5.8190 H       1  UNL1        0.0406
     42 H          -3.2990    0.2270   -4.1360 H       1  UNL1        0.0515
     43 H          -2.2720    1.2130   -5.1790 H       1  UNL1        0.0515
     44 H          -2.5940    0.2680   -1.7110 H       1  UNL1        0.0850
     45 H          -2.3690   -0.9600    2.5670 H       1  UNL1        0.0625
     46 H          -3.6550   -1.2760    4.6710 H       1  UNL1        0.0646
     47 H          -1.5290    1.9710    6.4830 H       1  UNL1        0.0646
     48 H          -0.2450    2.3230    4.4010 H       1  UNL1        0.0625
     49 H           1.9330   -0.6340    3.6950 H       1  UNL1        0.0639
     50 H           3.7400   -0.1440    5.3350 H       1  UNL1        0.0830
     51 H           4.0380    3.7710    4.0900 H       1  UNL1        0.0830
     52 H           2.2400    3.4740    2.3940 H       1  UNL1        0.0639
     53 H           2.2720    2.2540   -0.7030 H       1  UNL1        0.0456
     54 H           2.4530    0.4660   -0.8410 H       1  UNL1        0.0456
     55 H           3.1620    1.3240    0.5350 H       1  UNL1        0.0456
     56 H          -4.1510   -4.2630   -3.6480 H       1  UNL1        0.0562
     57 H          -3.0840   -3.7760   -2.3070 H       1  UNL1        0.0562
     58 H          -5.9190   -2.7150   -2.7860 H       1  UNL1        0.0252
     59 H          -4.8610   -2.2300   -1.4660 H       1  UNL1        0.0252
     60 H          -5.4610   -3.9050   -1.5440 H       1  UNL1        0.0252
@<TRIPOS>BOND
     1     1     2    1
     2     1    35    1
     3     1    36    1
     4     1    37    1
     5     2     3    1
     6     2    38    1
     7     2    39    1
     8     4     3    1
     9     4     5    2
    10     4     6    1
    11     4    32    1
    12     6     7    1
    13     6    40    1
    14     6    41    1
    15     7     8    1
    16     7    42    1
    17     7    43    1
    18     8     9   ar
    19     8    31   ar
    20     9    10   ar
    21     9    44    1
    22    10    11    1
    23    10    30   ar
    24    11    12   ar
    25    11    28   ar
    26    12    13   ar
    27    13    14    1
    28    13    21   ar
    29    14    15   ar
    30    14    20   ar
    31    15    16   ar
    32    15    45    1
    33    16    17   ar
    34    16    46    1
    35    17    18    1
    36    17    19   ar
    37    19    20   ar
    38    19    47    1
    39    20    48    1
    40    21    22    1
    41    21    28   ar
    42    22    23   ar
    43    22    27   ar
    44    23    24   ar
    45    23    49    1
    46    24    25   ar
    47    24    50    1
    48    25    26   ar
    49    26    27   ar
    50    26    51    1
    51    27    52    1
    52    28    29    1
    53    29    53    1
    54    29    54    1
    55    29    55    1
    56    30    31   ar
    57    32    33    1
    58    33    34    1
    59    33    56    1
    60    33    57    1
    61    34    58    1
    62    34    59    1
    63    34    60    1
@<TRIPOS>MOLECULE
AD3CC01483052-I00-C00
 38 41 0 0 0
SMALL
GASTEIGER

@<TRIPOS>ATOM
      1 O           5.4890    0.4800    3.3350 O.co2   1  UNL1       -0.5479
      2 C           4.7540   -0.0820    4.1990 C.2     1  UNL1        0.0631
      3 O           4.3290    0.3780    5.2970 O.co2   1  UNL1       -0.5479
      4 C           4.3610   -1.5060    3.8830 C.3     1  UNL1        0.0824
      5 N           3.0930   -1.5540    3.1960 N.ar    1  UNL1       -0.2455
      6 C           2.5810   -0.7040    2.2560 C.ar    1  UNL1        0.0584
      7 C           1.3990   -1.2940    1.8820 C.ar    1  UNL1        0.1670
      8 C           0.3810   -0.7330    0.8480 C.ar    1  UNL1        0.2504
      9 N           0.5440    0.4020    0.1890 N.ar    1  UNL1       -0.2069
     10 C          -0.5670    0.5010   -0.6150 C.ar    1  UNL1        0.1176
     11 C          -0.7550    1.6090   -1.5320 C.ar    1  UNL1        0.0043
     12 C          -0.3770    2.9000   -1.1310 C.ar    1  UNL1       -0.0497
     13 C          -0.5390    3.9870   -1.9930 C.ar    1  UNL1       -0.0258
     14 C          -1.0700    3.7810   -3.2600 C.ar    1  UNL1        0.1234
     15 F          -1.2280    4.8220   -4.0880 F       1  UNL1       -0.2055
     16 C          -1.4330    2.5080   -3.6850 C.ar    1  UNL1       -0.0258
     17 C          -1.2690    1.4200   -2.8240 C.ar    1  UNL1       -0.0497
     18 C          -1.4080   -0.5720   -0.3900 C.ar    1  UNL1        0.1635
     19 C          -2.7210   -1.0220   -0.8260 C.ar    1  UNL1        0.0223
     20 C          -2.9800   -2.3830   -1.0080 C.ar    1  UNL1       -0.0329
     21 C          -4.2400   -2.7700   -1.4300 C.ar    1  UNL1        0.0282
     22 N          -5.2480   -1.9060   -1.6780 N.ar    1  UNL1       -0.2632
     23 C          -4.9840   -0.5980   -1.4770 C.ar    1  UNL1        0.0282
     24 C          -3.7560   -0.1140   -1.0560 C.ar    1  UNL1       -0.0329
     25 O          -0.7880   -1.3800    0.5270 O.2     1  UNL1       -0.4333
     26 N           1.2410   -2.4780    2.5500 N.ar    1  UNL1       -0.1247
     27 N           2.2990   -2.6450    3.3360 N.ar    1  UNL1       -0.0646
     28 H           5.1000   -1.9900    3.2370 H       1  UNL1        0.0571
     29 H           4.2730   -2.0860    4.8080 H       1  UNL1        0.0571
     30 H           3.0770    0.2100    1.9600 H       1  UNL1        0.0850
     31 H           0.0530    3.0600   -0.1420 H       1  UNL1        0.0625
     32 H          -0.2470    4.9850   -1.6820 H       1  UNL1        0.0646
     33 H          -1.8290    2.3690   -4.6850 H       1  UNL1        0.0646
     34 H          -1.5310    0.4260   -3.1800 H       1  UNL1        0.0625
     35 H          -2.2150   -3.1320   -0.8250 H       1  UNL1        0.0640
     36 H          -4.4790   -3.8190   -1.5830 H       1  UNL1        0.0830
     37 H          -5.8150    0.0760   -1.6650 H       1  UNL1        0.0830
     38 H          -3.6260    0.9520   -0.9010 H       1  UNL1        0.0640
@<TRIPOS>UNITY_ATOM_ATTR
3 1
charge -1
@<TRIPOS>BOND
     1     1     2   ar
     2     2     3   ar
     3     2     4    1
     4     4     5    1
     5     4    28    1
     6     4    29    1
     7     5     6   ar
     8     5    27   ar
     9     6     7   ar
    10     6    30    1
    11     7     8    1
    12     7    26   ar
    13     8     9   ar
    14     8    25   ar
    15     9    10   ar
    16    10    11    1
    17    10    18   ar
    18    11    12   ar
    19    11    17   ar
    20    12    13   ar
    21    12    31    1
    22    13    14   ar
    23    13    32    1
    24    14    15    1
    25    14    16   ar
    26    16    17   ar
    27    16    33    1
    28    17    34    1
    29    18    19    1
    30    18    25   ar
    31    19    20   ar
    32    19    24   ar
    33    20    21   ar
    34    20    35    1
    35    21    22   ar
    36    21    36    1
    37    22    23   ar
    38    23    24   ar
    39    23    37    1
    40    24    38    1
    41    26    27   ar
@<TRIPOS>MOLECULE
AD3CC01483053-I00-C00
 47 50 0 0 0
SMALL
GASTEIGER

@<TRIPOS>ATOM
      1 C           2.7220    0.2820    0.2360 C.3     1  UNL1        0.0139
      2 N           1.2880    0.0850    0.2720 N.ar    1  UNL1       -0.3249
      3 C           0.6420   -1.1150    0.0550 C.ar    1  UNL1        0.1634
      4 C           1.3010   -2.5340   -0.0130 C.ar    1  UNL1        0.1477
      5 C           2.5910   -2.8510    0.3210 C.ar    1  UNL1        0.0571
      6 N           2.7250   -4.1700   -0.0140 N.ar    1  UNL1       -0.2421
      7 C           3.9400   -4.9630   -0.0580 C.3     1  UNL1        0.0984
      8 C           5.2500   -4.1670   -0.1650 C.3     1  UNL1        0.0146
      9 C           5.2880   -3.2730   -1.3940 C.2     1  UNL1        0.0441
     10 O           5.3210   -3.8630   -2.5090 O.co2   1  UNL1       -0.5497
     11 O           5.3240   -2.0270   -1.1550 O.co2   1  UNL1       -0.5497
     12 C           3.9850   -5.7690    1.2450 C.2     1  UNL1        0.0666
     13 O           4.0080   -7.0320    1.1120 O.co2   1  UNL1       -0.5476
     14 O           4.0420   -5.1140    2.3320 O.co2   1  UNL1       -0.5476
     15 N           1.5380   -4.6610   -0.4560 N.ar    1  UNL1       -0.0644
     16 N           0.6520   -3.6670   -0.4260 N.ar    1  UNL1       -0.1264
     17 N          -0.6510   -0.9080   -0.1190 N.ar    1  UNL1       -0.2252
     18 C          -0.8630    0.4270    0.1100 C.ar    1  UNL1        0.0974
     19 C          -2.1980    1.0010    0.0320 C.ar    1  UNL1        0.0026
     20 C          -2.6320    2.0100    0.9050 C.ar    1  UNL1       -0.0498
     21 C          -3.9240    2.5330    0.7960 C.ar    1  UNL1       -0.0258
     22 C          -4.7850    2.0390   -0.1770 C.ar    1  UNL1        0.1234
     23 F          -6.0230    2.5440   -0.2790 F       1  UNL1       -0.2055
     24 C          -4.3840    1.0270   -1.0390 C.ar    1  UNL1       -0.0258
     25 C          -3.0930    0.5060   -0.9310 C.ar    1  UNL1       -0.0498
     26 C           0.3310    1.0840    0.3770 C.ar    1  UNL1        0.0768
     27 C           0.6330    2.4900    0.6320 C.ar    1  UNL1        0.0035
     28 C           0.3510    3.4600   -0.3290 C.ar    1  UNL1       -0.0344
     29 C           0.6340    4.7820   -0.0310 C.ar    1  UNL1        0.0282
     30 N           1.1670    5.1950    1.1410 N.ar    1  UNL1       -0.2632
     31 C           1.4400    4.2330    2.0500 C.ar    1  UNL1        0.0282
     32 C           1.1920    2.8850    1.8470 C.ar    1  UNL1       -0.0344
     33 H           3.1350   -0.0280    1.1980 H       1  UNL1        0.0456
     34 H           2.9540    1.3340    0.0580 H       1  UNL1        0.0456
     35 H           3.1400   -0.2920   -0.5930 H       1  UNL1        0.0456
     36 H           3.4270   -2.2940    0.7110 H       1  UNL1        0.0850
     37 H           3.8440   -5.6340   -0.9210 H       1  UNL1        0.0611
     38 H           5.4270   -3.5600    0.7320 H       1  UNL1        0.0349
     39 H           6.0970   -4.8630   -0.2260 H       1  UNL1        0.0349
     40 H          -1.9770    2.3840    1.6870 H       1  UNL1        0.0625
     41 H          -4.2600    3.3140    1.4690 H       1  UNL1        0.0646
     42 H          -5.0720    0.6420   -1.7840 H       1  UNL1        0.0646
     43 H          -2.7770   -0.2980   -1.5960 H       1  UNL1        0.0625
     44 H          -0.0780    3.1920   -1.2890 H       1  UNL1        0.0639
     45 H           0.4330    5.5690   -0.7510 H       1  UNL1        0.0830
     46 H           1.8780    4.5840    2.9790 H       1  UNL1        0.0830
     47 H           1.4270    2.1620    2.6220 H       1  UNL1        0.0639
@<TRIPOS>UNITY_ATOM_ATTR
11 1
charge -1
14 1
charge -1
@<TRIPOS>BOND
     1     1     2    1
     2     1    33    1
     3     1    34    1
     4     1    35    1
     5     2     3   ar
     6     2    26   ar
     7     3     4    1
     8     3    17   ar
     9     4     5   ar
    10     4    16   ar
    11     5     6   ar
    12     5    36    1
    13     6     7    1
    14     6    15   ar
    15     7     8    1
    16     7    12    1
    17     7    37    1
    18     8     9    1
    19     8    38    1
    20     8    39    1
    21     9    10   ar
    22     9    11   ar
    23    12    13   ar
    24    12    14   ar
    25    15    16   ar
    26    17    18   ar
    27    18    19    1
    28    18    26   ar
    29    19    20   ar
    30    19    25   ar
    31    20    21   ar
    32    20    40    1
    33    21    22   ar
    34    21    41    1
    35    22    23    1
    36    22    24   ar
    37    24    25   ar
    38    24    42    1
    39    25    43    1
    40    26    27    1
    41    27    28   ar
    42    27    32   ar
    43    28    29   ar
    44    28    44    1
    45    29    30   ar
    46    29    45    1
    47    30    31   ar
    48    31    32   ar
    49    31    46    1
    50    32    47    1
@<TRIPOS>MOLECULE
AD3CC01496807-I00-C00
 42 44 0 0 0
SMALL
GASTEIGER

@<TRIPOS>ATOM
      1 C           6.2740   -4.0850   -1.2270 C.3     1  UNL1       -0.0495
      2 C           5.0530   -4.4360   -2.0590 C.3     1  UNL1        0.0102
      3 N           4.1050   -3.3420   -2.1190 N.am    1  UNL1       -0.2994
      4 C           3.2260   -3.1010   -1.0840 C.2     1  UNL1        0.3049
      5 O           3.1560   -3.8210   -0.0970 O.2     1  UNL1       -0.2525
      6 N           2.4670   -1.9880   -1.3300 N.am    1  UNL1       -0.2541
      7 C           1.4980   -1.4040   -0.5140 C.ar    1  UNL1        0.1286
      8 C           1.2200   -1.8120    0.7770 C.ar    1  UNL1       -0.0193
      9 C           0.2310   -1.1350    1.4850 C.ar    1  UNL1       -0.0294
     10 C          -0.4490   -0.0810    0.9050 C.ar    1  UNL1        0.1081
     11 N          -1.4010    0.5690    1.6030 N.ar    1  UNL1       -0.2484
     12 C          -2.0060    1.5850    0.9460 C.ar    1  UNL1        0.0684
     13 C          -1.6980    1.9370   -0.3620 C.ar    1  UNL1        0.1436
     14 N          -2.3040    2.9940   -1.0420 N.pl3   1  UNL1       -0.2982
     15 C          -3.6140    3.5040   -1.0090 C.ar    1  UNL1        0.0324
     16 C          -3.8430    4.7740   -1.5570 C.ar    1  UNL1       -0.0403
     17 C          -5.1140    5.3560   -1.5320 C.ar    1  UNL1       -0.0571
     18 C          -6.1920    4.6730   -0.9640 C.ar    1  UNL1       -0.0503
     19 C          -7.5510    5.3060   -0.9050 C.3     1  UNL1       -0.0397
     20 C          -5.9700    3.4130   -0.4020 C.ar    1  UNL1       -0.0571
     21 C          -4.6950    2.8350   -0.4280 C.ar    1  UNL1       -0.0403
     22 N          -0.7230    1.2830   -1.0290 N.ar    1  UNL1       -0.2094
     23 C          -0.0970    0.2710   -0.4190 C.ar    1  UNL1        0.1819
     24 N           0.8540   -0.3760   -1.1010 N.ar    1  UNL1       -0.2108
     25 H           6.7810   -3.2020   -1.6310 H       1  UNL1        0.0245
     26 H           6.0000   -3.8650   -0.1900 H       1  UNL1        0.0245
     27 H           6.9850   -4.9170   -1.2230 H       1  UNL1        0.0245
     28 H           5.3510   -4.6610   -3.0880 H       1  UNL1        0.0460
     29 H           4.5560   -5.3200   -1.6440 H       1  UNL1        0.0460
     30 H           4.3520   -2.5550   -2.7010 H       1  UNL1        0.1502
     31 H           2.5010   -1.5780   -2.2490 H       1  UNL1        0.1578
     32 H           1.7430   -2.6320    1.2560 H       1  UNL1        0.0653
     33 H          -0.0090   -1.4340    2.5020 H       1  UNL1        0.0641
     34 H          -2.7410    2.1330    1.5250 H       1  UNL1        0.0865
     35 H          -1.8650    3.0910   -1.9530 H       1  UNL1        0.1536
     36 H          -3.0210    5.3320   -1.9980 H       1  UNL1        0.0636
     37 H          -5.2530    6.3470   -1.9570 H       1  UNL1        0.0621
     38 H          -7.6540    5.8840    0.0190 H       1  UNL1        0.0278
     39 H          -7.7090    5.9720   -1.7590 H       1  UNL1        0.0278
     40 H          -8.3380    4.5450   -0.9360 H       1  UNL1        0.0278
     41 H          -6.7910    2.8640    0.0550 H       1  UNL1        0.0621
     42 H          -4.5820    1.8380   -0.0130 H       1  UNL1        0.0636
@<TRIPOS>BOND
     1     1     2    1
     2     1    25    1
     3     1    26    1
     4     1    27    1
     5     2     3    1
     6     2    28    1
     7     2    29    1
     8     3     4   am
     9     3    30    1
    10     4     5    2
    11     4     6   am
    12     6     7    1
    13     6    31    1
    14     7     8   ar
    15     7    24   ar
    16     8     9   ar
    17     8    32    1
    18     9    10   ar
    19     9    33    1
    20    10    11   ar
    21    10    23   ar
    22    11    12   ar
    23    12    13   ar
    24    12    34    1
    25    13    14    1
    26    13    22   ar
    27    14    15    1
    28    14    35    1
    29    15    16   ar
    30    15    21   ar
    31    16    17   ar
    32    16    36    1
    33    17    18   ar
    34    17    37    1
    35    18    19    1
    36    18    20   ar
    37    19    38    1
    38    19    39    1
    39    19    40    1
    40    20    21   ar
    41    20    41    1
    42    21    42    1
    43    22    23   ar
    44    23    24   ar
@<TRIPOS>MOLECULE
AD3CC01520671-I00-C00
 47 51 0 0 0
SMALL
GASTEIGER

@<TRIPOS>ATOM
      1 O           1.0900    2.3360   -1.1140 O.2     1  UNL1       -0.2698
      2 C           1.6140    1.4110   -1.7260 C.2     1  UNL1        0.2493
      3 N           1.1750    0.1080   -1.7520 N.am    1  UNL1       -0.2663
      4 C           0.1120   -0.4510   -1.0400 C.ar    1  UNL1        0.1257
      5 C          -0.5660    0.2010   -0.0220 C.ar    1  UNL1       -0.0123
      6 C          -1.6340   -0.4450    0.6060 C.ar    1  UNL1        0.0053
      7 C          -2.3890    0.2170    1.6680 C.ar    1  UNL1        0.0774
      8 C          -2.7790   -0.1760    2.9550 C.ar    1  UNL1        0.0979
      9 C          -2.4410   -1.4180    3.6330 C.ar    1  UNL1        0.0026
     10 C          -3.4210   -2.0650    4.4020 C.ar    1  UNL1       -0.0498
     11 C          -3.1280   -3.2570    5.0680 C.ar    1  UNL1       -0.0258
     12 C          -1.8520   -3.7980    4.9720 C.ar    1  UNL1        0.1234
     13 F          -1.5700   -4.9420    5.6080 F       1  UNL1       -0.2055
     14 C          -0.8610   -3.1650    4.2310 C.ar    1  UNL1       -0.0258
     15 C          -1.1530   -1.9710    3.5660 C.ar    1  UNL1       -0.0498
     16 N          -3.5910    0.7740    3.5600 N.ar    1  UNL1       -0.2212
     17 C          -3.6530    1.7300    2.6810 C.ar    1  UNL1        0.1700
     18 N          -2.9520    1.4570    1.5540 N.ar    1  UNL1       -0.3174
     19 C          -2.9700    2.4630    0.5140 C.3     1  UNL1        0.0351
     20 C          -4.1400    3.4020    0.8270 C.3     1  UNL1        0.0192
     21 S          -4.4730    3.2360    2.6260 S.3     1  UNL1       -0.0859
     22 C          -1.9690   -1.7340    0.2000 C.ar    1  UNL1       -0.0343
     23 C          -1.2220   -2.3190   -0.8060 C.ar    1  UNL1        0.0303
     24 N          -0.1920   -1.7060   -1.4290 N.ar    1  UNL1       -0.2401
     25 C           2.8080    1.6940   -2.5740 C.ar    1  UNL1        0.0371
     26 C           3.8020    0.7320   -2.8010 C.ar    1  UNL1       -0.0496
     27 C           4.9040    1.0430   -3.6010 C.ar    1  UNL1       -0.0610
     28 C           5.0230    2.3120   -4.1680 C.ar    1  UNL1       -0.0617
     29 C           4.0450    3.2780   -3.9310 C.ar    1  UNL1       -0.0610
     30 C           2.9420    2.9730   -3.1310 C.ar    1  UNL1       -0.0496
     31 H           1.5520   -0.5370   -2.4330 H       1  UNL1        0.1566
     32 H          -0.2680    1.1890    0.3060 H       1  UNL1        0.0658
     33 H          -4.4170   -1.6330    4.4870 H       1  UNL1        0.0625
     34 H          -3.8850   -3.7600    5.6620 H       1  UNL1        0.0646
     35 H           0.1330   -3.5970    4.1820 H       1  UNL1        0.0646
     36 H          -0.3630   -1.4720    3.0110 H       1  UNL1        0.0625
     37 H          -2.0130    2.9930    0.5570 H       1  UNL1        0.0501
     38 H          -3.0870    1.9820   -0.4610 H       1  UNL1        0.0501
     39 H          -3.9170    4.4380    0.5570 H       1  UNL1        0.0398
     40 H          -5.0380    3.0850    0.2860 H       1  UNL1        0.0398
     41 H          -2.7910   -2.2790    0.6530 H       1  UNL1        0.0639
     42 H          -1.4400   -3.3260   -1.1500 H       1  UNL1        0.0830
     43 H           3.7510   -0.2520   -2.3430 H       1  UNL1        0.0625
     44 H           5.6780    0.2990   -3.7750 H       1  UNL1        0.0618
     45 H           5.8840    2.5530   -4.7870 H       1  UNL1        0.0618
     46 H           4.1440    4.2700   -4.3640 H       1  UNL1        0.0618
     47 H           2.1870    3.7340   -2.9460 H       1  UNL1        0.0625
@<TRIPOS>BOND
     1     1     2    2
     2     2     3   am
     3     2    25    1
     4     3     4    1
     5     3    31    1
     6     4     5   ar
     7     4    24   ar
     8     5     6   ar
     9     5    32    1
    10     6     7    1
    11     6    22   ar
    12     7     8   ar
    13     7    18   ar
    14     8     9    1
    15     8    16   ar
    16     9    10   ar
    17     9    15   ar
    18    10    11   ar
    19    10    33    1
    20    11    12   ar
    21    11    34    1
    22    12    13    1
    23    12    14   ar
    24    14    15   ar
    25    14    35    1
    26    15    36    1
    27    16    17   ar
    28    17    18   ar
    29    17    21    1
    30    18    19    1
    31    19    20    1
    32    19    37    1
    33    19    38    1
    34    20    21    1
    35    20    39    1
    36    20    40    1
    37    22    23   ar
    38    22    41    1
    39    23    24   ar
    40    23    42    1
    41    25    26   ar
    42    25    30   ar
    43    26    27   ar
    44    26    43    1
    45    27    28   ar
    46    27    44    1
    47    28    29   ar
    48    28    45    1
    49    29    30   ar
    50    29    46    1
    51    30    47    1
@<TRIPOS>MOLECULE
AD3CC01520672-I00-C00
 50 54 0 0 0
SMALL
GASTEIGER

@<TRIPOS>ATOM
      1 O           1.3990   -2.0110   -0.7000 O.2     1  UNL1       -0.2751
      2 C           2.2100   -1.1270   -0.4360 C.2     1  UNL1        0.2226
      3 C           3.6890   -1.4420   -0.2710 C.3     1  UNL1        0.0495
      4 C           4.1480   -1.3740    1.1660 C.ar    1  UNL1       -0.0384
      5 C           3.6400   -2.2780    2.1130 C.ar    1  UNL1       -0.0554
      6 C           4.0570   -2.2150    3.4430 C.ar    1  UNL1       -0.0262
      7 C           4.9810   -1.2510    3.8260 C.ar    1  UNL1        0.1234
      8 F           5.3810   -1.1910    5.1030 F       1  UNL1       -0.2055
      9 C           5.4990   -0.3500    2.9040 C.ar    1  UNL1       -0.0262
     10 C           5.0840   -0.4100    1.5720 C.ar    1  UNL1       -0.0554
     11 N           1.9230    0.2070   -0.2560 N.am    1  UNL1       -0.2701
     12 C           0.6870    0.8440   -0.3590 C.ar    1  UNL1        0.1255
     13 C          -0.4630    0.2350   -0.8390 C.ar    1  UNL1       -0.0123
     14 C          -1.6540    0.9660   -0.8750 C.ar    1  UNL1        0.0053
     15 C          -2.8910    0.3580   -1.3570 C.ar    1  UNL1        0.0774
     16 C          -3.8480    0.7500   -2.3030 C.ar    1  UNL1        0.0979
     17 C          -3.8060    1.9290   -3.1550 C.ar    1  UNL1        0.0026
     18 C          -4.9900    2.6480   -3.3830 C.ar    1  UNL1       -0.0498
     19 C          -4.9850    3.7830   -4.1980 C.ar    1  UNL1       -0.0258
     20 C          -3.7990    4.1910   -4.7930 C.ar    1  UNL1        0.1234
     21 F          -3.7920    5.2790   -5.5740 F       1  UNL1       -0.2055
     22 C          -2.6190    3.4830   -4.5960 C.ar    1  UNL1       -0.0258
     23 C          -2.6230    2.3480   -3.7810 C.ar    1  UNL1       -0.0498
     24 N          -4.9240   -0.1260   -2.3400 N.ar    1  UNL1       -0.2212
     25 C          -4.6070   -1.0410   -1.4730 C.ar    1  UNL1        0.1700
     26 N          -3.4140   -0.8090   -0.8740 N.ar    1  UNL1       -0.3174
     27 C          -2.9820   -1.7710    0.1170 C.3     1  UNL1        0.0351
     28 C          -4.2180   -2.5860    0.5090 C.3     1  UNL1        0.0192
     29 S          -5.4000   -2.4460   -0.8900 S.3     1  UNL1       -0.0859
     30 C          -1.6410    2.2900   -0.4430 C.ar    1  UNL1       -0.0343
     31 C          -0.4450    2.8230   -0.0010 C.ar    1  UNL1        0.0303
     32 N           0.7130    2.1290    0.0480 N.ar    1  UNL1       -0.2401
     33 H           4.2630   -0.7520   -0.9010 H       1  UNL1        0.0407
     34 H           3.8820   -2.4470   -0.6660 H       1  UNL1        0.0407
     35 H           2.9170   -3.0380    1.8180 H       1  UNL1        0.0621
     36 H           3.6690   -2.9100    4.1800 H       1  UNL1        0.0646
     37 H           6.2230    0.3910    3.2280 H       1  UNL1        0.0646
     38 H           5.5020    0.2970    0.8580 H       1  UNL1        0.0621
     39 H           2.6400    0.8220    0.1050 H       1  UNL1        0.1562
     40 H          -0.4500   -0.7850   -1.2030 H       1  UNL1        0.0658
     41 H          -5.9220    2.3190   -2.9260 H       1  UNL1        0.0625
     42 H          -5.8990    4.3410   -4.3740 H       1  UNL1        0.0646
     43 H          -1.7070    3.8120   -5.0830 H       1  UNL1        0.0646
     44 H          -1.7000    1.7880   -3.6560 H       1  UNL1        0.0625
     45 H          -2.5530   -1.2470    0.9760 H       1  UNL1        0.0501
     46 H          -2.2220   -2.4030   -0.3530 H       1  UNL1        0.0501
     47 H          -3.9710   -3.6310    0.7180 H       1  UNL1        0.0398
     48 H          -4.6940   -2.1550    1.3970 H       1  UNL1        0.0398
     49 H          -2.5390    2.9010   -0.4500 H       1  UNL1        0.0639
     50 H          -0.3840    3.8530    0.3390 H       1  UNL1        0.0830
@<TRIPOS>BOND
     1     1     2    2
     2     2     3    1
     3     2    11   am
     4     3     4    1
     5     3    33    1
     6     3    34    1
     7     4     5   ar
     8     4    10   ar
     9     5     6   ar
    10     5    35    1
    11     6     7   ar
    12     6    36    1
    13     7     8    1
    14     7     9   ar
    15     9    10   ar
    16     9    37    1
    17    10    38    1
    18    11    12    1
    19    11    39    1
    20    12    13   ar
    21    12    32   ar
    22    13    14   ar
    23    13    40    1
    24    14    15    1
    25    14    30   ar
    26    15    16   ar
    27    15    26   ar
    28    16    17    1
    29    16    24   ar
    30    17    18   ar
    31    17    23   ar
    32    18    19   ar
    33    18    41    1
    34    19    20   ar
    35    19    42    1
    36    20    21    1
    37    20    22   ar
    38    22    23   ar
    39    22    43    1
    40    23    44    1
    41    24    25   ar
    42    25    26   ar
    43    25    29    1
    44    26    27    1
    45    27    28    1
    46    27    45    1
    47    27    46    1
    48    28    29    1
    49    28    47    1
    50    28    48    1
    51    30    31   ar
    52    30    49    1
    53    31    32   ar
    54    31    50    1
@<TRIPOS>MOLECULE
AD3CC01539175-I00-C00
 52 56 0 0 0
SMALL
GASTEIGER

@<TRIPOS>ATOM
      1 C          -3.2640   -0.5430   -3.1900 C.3     1  UNL1       -0.0223
      2 C          -2.6710   -1.6440   -2.3650 C.ar    1  UNL1        0.0390
      3 C          -3.3660   -2.8350   -2.1820 C.ar    1  UNL1       -0.0406
      4 C          -2.7800   -3.8400   -1.4190 C.ar    1  UNL1       -0.0580
      5 C          -1.5240   -3.6290   -0.8590 C.ar    1  UNL1       -0.0342
      6 C          -0.9020   -2.4080   -1.0740 C.ar    1  UNL1        0.0895
      7 C           0.4130   -2.0790   -0.5530 C.ar    1  UNL1        0.0926
      8 N           1.2630   -1.2470   -1.2500 N.ar    1  UNL1       -0.3389
      9 C           2.4400   -1.1270   -0.5550 C.ar    1  UNL1        0.1254
     10 C           3.5830   -0.2810   -1.0360 C.3     1  UNL1        0.0672
     11 N           3.2600    0.8500   -1.9220 N.pl3   1  UNL1       -0.3362
     12 C           2.4220    1.8550   -1.3830 C.ar    1  UNL1        0.0397
     13 C           2.7530    2.4720   -0.1660 C.ar    1  UNL1       -0.0401
     14 C           1.9580    3.4870    0.3730 C.ar    1  UNL1       -0.0600
     15 C           0.8160    3.9120   -0.2970 C.ar    1  UNL1       -0.0609
     16 C           0.4730    3.3320   -1.5160 C.ar    1  UNL1       -0.0479
     17 C           1.2760    2.3220   -2.0720 C.ar    1  UNL1        0.0573
     18 C           0.8690    1.6900   -3.3600 C.2     1  UNL1        0.2433
     19 N           0.1860    2.4630   -4.2580 N.am    1  UNL1       -0.3253
     20 O           1.1660    0.5290   -3.6240 O.2     1  UNL1       -0.2704
     21 N           2.3970   -1.8480    0.5490 N.ar    1  UNL1       -0.2302
     22 C           1.1370   -2.4000    0.5820 C.ar    1  UNL1        0.0998
     23 C           0.7470   -3.1690    1.7250 C.ar    1  UNL1        0.0208
     24 C           1.6980   -4.1130    2.3290 C.ar    1  UNL1       -0.0475
     25 C           1.3940   -4.8570    3.4090 C.ar    1  UNL1       -0.0167
     26 C           0.1120   -4.7310    4.0050 C.ar    1  UNL1        0.1557
     27 N          -0.4460   -5.3260    5.0350 N.ar    1  UNL1       -0.2149
     28 C          -1.6780   -4.7480    5.0820 C.ar    1  UNL1        0.1390
     29 N          -1.9340   -3.8350    4.1450 N.ar    1  UNL1       -0.1535
     30 N          -0.7750   -3.8130    3.4390 N.ar    1  UNL1       -0.2198
     31 C          -0.4570   -3.0450    2.3230 C.ar    1  UNL1        0.0407
     32 N          -1.4500   -1.4230   -1.8250 N.ar    1  UNL1       -0.2503
     33 H          -2.5900    0.3190   -3.2330 H       1  UNL1        0.0292
     34 H          -3.4400   -0.8890   -4.2140 H       1  UNL1        0.0292
     35 H          -4.2120   -0.2120   -2.7540 H       1  UNL1        0.0292
     36 H          -4.3440   -2.9840   -2.6280 H       1  UNL1        0.0635
     37 H          -3.2950   -4.7850   -1.2680 H       1  UNL1        0.0619
     38 H          -1.0470   -4.4150   -0.2860 H       1  UNL1        0.0639
     39 H           1.0310   -0.7820   -2.1230 H       1  UNL1        0.1672
     40 H           4.2590   -0.9400   -1.5950 H       1  UNL1        0.0541
     41 H           4.1650    0.0640   -0.1740 H       1  UNL1        0.0541
     42 H           2.8590    0.4920   -2.7960 H       1  UNL1        0.1465
     43 H           3.6490    2.1780    0.3740 H       1  UNL1        0.0636
     44 H           2.2350    3.9410    1.3220 H       1  UNL1        0.0618
     45 H           0.1900    4.6890    0.1350 H       1  UNL1        0.0618
     46 H          -0.4420    3.6530   -2.0080 H       1  UNL1        0.0626
     47 H           0.1870    3.4720   -4.1940 H       1  UNL1        0.1453
     48 H           0.0440    2.0590   -5.1750 H       1  UNL1        0.1453
     49 H           2.6830   -4.1880    1.8720 H       1  UNL1        0.0626
     50 H           2.1090   -5.5460    3.8450 H       1  UNL1        0.0655
     51 H          -2.4200   -5.0040    5.8280 H       1  UNL1        0.1066
     52 H          -1.2290   -2.3620    1.9940 H       1  UNL1        0.0837
@<TRIPOS>BOND
     1     1     2    1
     2     1    33    1
     3     1    34    1
     4     1    35    1
     5     2     3   ar
     6     2    32   ar
     7     3     4   ar
     8     3    36    1
     9     4     5   ar
    10     4    37    1
    11     5     6   ar
    12     5    38    1
    13     6     7    1
    14     6    32   ar
    15     7     8   ar
    16     7    22   ar
    17     8     9   ar
    18     8    39    1
    19     9    10    1
    20     9    21   ar
    21    10    11    1
    22    10    40    1
    23    10    41    1
    24    11    12    1
    25    11    42    1
    26    12    13   ar
    27    12    17   ar
    28    13    14   ar
    29    13    43    1
    30    14    15   ar
    31    14    44    1
    32    15    16   ar
    33    15    45    1
    34    16    17   ar
    35    16    46    1
    36    17    18    1
    37    18    19   am
    38    18    20    2
    39    19    47    1
    40    19    48    1
    41    21    22   ar
    42    22    23    1
    43    23    24   ar
    44    23    31   ar
    45    24    25   ar
    46    24    49    1
    47    25    26   ar
    48    25    50    1
    49    26    27   ar
    50    26    30   ar
    51    27    28   ar
    52    28    29   ar
    53    28    51    1
    54    29    30   ar
    55    30    31   ar
    56    31    52    1
@<TRIPOS>MOLECULE
AD3CC01539175-I00-C00
 52 56 0 0 0
SMALL
GASTEIGER

@<TRIPOS>ATOM
      1 C          -3.2640   -0.5430   -3.1900 C.3     1  UNL1       -0.0223
      2 C          -2.6710   -1.6440   -2.3650 C.ar    1  UNL1        0.0390
      3 C          -3.3660   -2.8350   -2.1820 C.ar    1  UNL1       -0.0406
      4 C          -2.7800   -3.8400   -1.4190 C.ar    1  UNL1       -0.0580
      5 C          -1.5240   -3.6290   -0.8590 C.ar    1  UNL1       -0.0342
      6 C          -0.9020   -2.4080   -1.0740 C.ar    1  UNL1        0.0895
      7 C           0.4130   -2.0790   -0.5530 C.ar    1  UNL1        0.0926
      8 N           1.2630   -1.2470   -1.2500 N.ar    1  UNL1       -0.3389
      9 C           2.4400   -1.1270   -0.5550 C.ar    1  UNL1        0.1254
     10 C           3.5830   -0.2810   -1.0360 C.3     1  UNL1        0.0672
     11 N           3.2600    0.8500   -1.9220 N.pl3   1  UNL1       -0.3362
     12 C           2.4220    1.8550   -1.3830 C.ar    1  UNL1        0.0397
     13 C           2.7530    2.4720   -0.1660 C.ar    1  UNL1       -0.0401
     14 C           1.9580    3.4870    0.3730 C.ar    1  UNL1       -0.0600
     15 C           0.8160    3.9120   -0.2970 C.ar    1  UNL1       -0.0609
     16 C           0.4730    3.3320   -1.5160 C.ar    1  UNL1       -0.0479
     17 C           1.2760    2.3220   -2.0720 C.ar    1  UNL1        0.0573
     18 C           0.8690    1.6900   -3.3600 C.2     1  UNL1        0.2433
     19 N           0.1860    2.4630   -4.2580 N.am    1  UNL1       -0.3253
     20 O           1.1660    0.5290   -3.6240 O.2     1  UNL1       -0.2704
     21 N           2.3970   -1.8480    0.5490 N.ar    1  UNL1       -0.2302
     22 C           1.1370   -2.4000    0.5820 C.ar    1  UNL1        0.0998
     23 C           0.7470   -3.1690    1.7250 C.ar    1  UNL1        0.0208
     24 C           1.6980   -4.1130    2.3290 C.ar    1  UNL1       -0.0475
     25 C           1.3940   -4.8570    3.4090 C.ar    1  UNL1       -0.0167
     26 C           0.1120   -4.7310    4.0050 C.ar    1  UNL1        0.1557
     27 N          -0.4460   -5.3260    5.0350 N.ar    1  UNL1       -0.2149
     28 C          -1.6780   -4.7480    5.0820 C.ar    1  UNL1        0.1390
     29 N          -1.9340   -3.8350    4.1450 N.ar    1  UNL1       -0.1535
     30 N          -0.7750   -3.8130    3.4390 N.ar    1  UNL1       -0.2198
     31 C          -0.4570   -3.0450    2.3230 C.ar    1  UNL1        0.0407
     32 N          -1.4500   -1.4230   -1.8250 N.ar    1  UNL1       -0.2503
     33 H          -2.5900    0.3190   -3.2330 H       1  UNL1        0.0292
     34 H          -3.4400   -0.8890   -4.2140 H       1  UNL1        0.0292
     35 H          -4.2120   -0.2120   -2.7540 H       1  UNL1        0.0292
     36 H          -4.3440   -2.9840   -2.6280 H       1  UNL1        0.0635
     37 H          -3.2950   -4.7850   -1.2680 H       1  UNL1        0.0619
     38 H          -1.0470   -4.4150   -0.2860 H       1  UNL1        0.0639
     39 H           1.0310   -0.7820   -2.1230 H       1  UNL1        0.1672
     40 H           4.2590   -0.9400   -1.5950 H       1  UNL1        0.0541
     41 H           4.1650    0.0640   -0.1740 H       1  UNL1        0.0541
     42 H           2.8590    0.4920   -2.7960 H       1  UNL1        0.1465
     43 H           3.6490    2.1780    0.3740 H       1  UNL1        0.0636
     44 H           2.2350    3.9410    1.3220 H       1  UNL1        0.0618
     45 H           0.1900    4.6890    0.1350 H       1  UNL1        0.0618
     46 H          -0.4420    3.6530   -2.0080 H       1  UNL1        0.0626
     47 H           0.1870    3.4720   -4.1940 H       1  UNL1        0.1453
     48 H           0.0440    2.0590   -5.1750 H       1  UNL1        0.1453
     49 H           2.6830   -4.1880    1.8720 H       1  UNL1        0.0626
     50 H           2.1090   -5.5460    3.8450 H       1  UNL1        0.0655
     51 H          -2.4200   -5.0040    5.8280 H       1  UNL1        0.1066
     52 H          -1.2290   -2.3620    1.9940 H       1  UNL1        0.0837
@<TRIPOS>BOND
     1     1     2    1
     2     1    33    1
     3     1    34    1
     4     1    35    1
     5     2     3   ar
     6     2    32   ar
     7     3     4   ar
     8     3    36    1
     9     4     5   ar
    10     4    37    1
    11     5     6   ar
    12     5    38    1
    13     6     7    1
    14     6    32   ar
    15     7     8   ar
    16     7    22   ar
    17     8     9   ar
    18     8    39    1
    19     9    10    1
    20     9    21   ar
    21    10    11    1
    22    10    40    1
    23    10    41    1
    24    11    12    1
    25    11    42    1
    26    12    13   ar
    27    12    17   ar
    28    13    14   ar
    29    13    43    1
    30    14    15   ar
    31    14    44    1
    32    15    16   ar
    33    15    45    1
    34    16    17   ar
    35    16    46    1
    36    17    18    1
    37    18    19   am
    38    18    20    2
    39    19    47    1
    40    19    48    1
    41    21    22   ar
    42    22    23    1
    43    23    24   ar
    44    23    31   ar
    45    24    25   ar
    46    24    49    1
    47    25    26   ar
    48    25    50    1
    49    26    27   ar
    50    26    30   ar
    51    27    28   ar
    52    28    29   ar
    53    28    51    1
    54    29    30   ar
    55    30    31   ar
    56    31    52    1
@<TRIPOS>MOLECULE
AD3CC01539478-I00-C00
 50 54 0 0 0
SMALL
GASTEIGER

@<TRIPOS>ATOM
      1 C           2.1590    3.8650   -1.3850 C.3     1  UNL1       -0.0223
      2 C           2.5380    2.4920   -0.9160 C.ar    1  UNL1        0.0390
      3 C           3.8580    2.2060   -0.5870 C.ar    1  UNL1       -0.0406
      4 C           4.1780    0.9210   -0.1630 C.ar    1  UNL1       -0.0580
      5 C           3.1740   -0.0380   -0.0730 C.ar    1  UNL1       -0.0342
      6 C           1.8770    0.3290   -0.4000 C.ar    1  UNL1        0.0895
      7 C           0.7500   -0.5880   -0.3580 C.ar    1  UNL1        0.0926
      8 N          -0.3210   -0.4340   -1.2100 N.ar    1  UNL1       -0.3389
      9 C          -1.2030   -1.4640   -1.0070 C.ar    1  UNL1        0.1255
     10 C          -2.4570   -1.5850   -1.8010 C.3     1  UNL1        0.0700
     11 N          -3.3860   -0.5590   -1.3850 N.am    1  UNL1       -0.3042
     12 C          -3.3140    0.7240   -1.8780 C.2     1  UNL1        0.2472
     13 O          -2.5020    1.0450   -2.7420 O.2     1  UNL1       -0.2701
     14 C          -4.2420    1.7400   -1.3080 C.ar    1  UNL1        0.0718
     15 C          -4.1840    3.0500   -1.8090 C.ar    1  UNL1       -0.0469
     16 C          -5.0320    4.0410   -1.3080 C.ar    1  UNL1       -0.0609
     17 C          -5.9460    3.7350   -0.3000 C.ar    1  UNL1       -0.0590
     18 C          -6.0110    2.4370    0.2050 C.ar    1  UNL1       -0.0257
     19 C          -5.1620    1.4510   -0.2980 C.ar    1  UNL1        0.1355
     20 F          -5.2580    0.2170    0.2220 F       1  UNL1       -0.2047
     21 N          -0.7780   -2.2550   -0.0440 N.ar    1  UNL1       -0.2302
     22 C           0.4060   -1.7020    0.3900 C.ar    1  UNL1        0.0998
     23 C           1.0790   -2.2970    1.5040 C.ar    1  UNL1        0.0208
     24 C           1.1820   -3.7610    1.5990 C.ar    1  UNL1       -0.0475
     25 C           1.7940   -4.3800    2.6260 C.ar    1  UNL1       -0.0167
     26 C           2.3600   -3.6040    3.6700 C.ar    1  UNL1        0.1557
     27 N           3.0100   -3.9340    4.7630 N.ar    1  UNL1       -0.2149
     28 C           3.2700   -2.7250    5.3340 C.ar    1  UNL1        0.1390
     29 N           2.8310   -1.6570    4.6670 N.ar    1  UNL1       -0.1535
     30 N           2.2350   -2.2160    3.5840 N.ar    1  UNL1       -0.2198
     31 C           1.6020   -1.5800    2.5210 C.ar    1  UNL1        0.0407
     32 N           1.5490    1.5700   -0.8350 N.ar    1  UNL1       -0.2503
     33 H           2.7030    4.1150   -2.3010 H       1  UNL1        0.0292
     34 H           2.3910    4.6060   -0.6140 H       1  UNL1        0.0292
     35 H           1.0870    3.9210   -1.6000 H       1  UNL1        0.0292
     36 H           4.6290    2.9670   -0.6640 H       1  UNL1        0.0635
     37 H           5.2030    0.6660    0.0890 H       1  UNL1        0.0619
     38 H           3.4190   -1.0490    0.2310 H       1  UNL1        0.0639
     39 H          -0.4420    0.3310   -1.8660 H       1  UNL1        0.1672
     40 H          -2.9320   -2.5540   -1.6200 H       1  UNL1        0.0542
     41 H          -2.2500   -1.4920   -2.8720 H       1  UNL1        0.0542
     42 H          -3.9500   -0.7500   -0.5650 H       1  UNL1        0.1495
     43 H          -3.4740    3.3040   -2.5950 H       1  UNL1        0.0626
     44 H          -4.9770    5.0530   -1.7050 H       1  UNL1        0.0618
     45 H          -6.6050    4.5060    0.0910 H       1  UNL1        0.0618
     46 H          -6.7170    2.1860    0.9910 H       1  UNL1        0.0646
     47 H           0.7280   -4.3440    0.8000 H       1  UNL1        0.0626
     48 H           1.8570   -5.4610    2.6830 H       1  UNL1        0.0655
     49 H           3.8000   -2.6180    6.2710 H       1  UNL1        0.1066
     50 H           1.5610   -0.5000    2.5830 H       1  UNL1        0.0837
@<TRIPOS>BOND
     1     1     2    1
     2     1    33    1
     3     1    34    1
     4     1    35    1
     5     2     3   ar
     6     2    32   ar
     7     3     4   ar
     8     3    36    1
     9     4     5   ar
    10     4    37    1
    11     5     6   ar
    12     5    38    1
    13     6     7    1
    14     6    32   ar
    15     7     8   ar
    16     7    22   ar
    17     8     9   ar
    18     8    39    1
    19     9    10    1
    20     9    21   ar
    21    10    11    1
    22    10    40    1
    23    10    41    1
    24    11    12   am
    25    11    42    1
    26    12    13    2
    27    12    14    1
    28    14    15   ar
    29    14    19   ar
    30    15    16   ar
    31    15    43    1
    32    16    17   ar
    33    16    44    1
    34    17    18   ar
    35    17    45    1
    36    18    19   ar
    37    18    46    1
    38    19    20    1
    39    21    22   ar
    40    22    23    1
    41    23    24   ar
    42    23    31   ar
    43    24    25   ar
    44    24    47    1
    45    25    26   ar
    46    25    48    1
    47    26    27   ar
    48    26    30   ar
    49    27    28   ar
    50    28    29   ar
    51    28    49    1
    52    29    30   ar
    53    30    31   ar
    54    31    50    1
@<TRIPOS>MOLECULE
AD3CC01561207-I00-C00
 30 32 0 0 0
SMALL
GASTEIGER

@<TRIPOS>ATOM
      1 N           2.1880    3.7730   -0.4560 N.pl3   1  UNL1       -0.3430
      2 C           1.3340    2.8130   -0.8780 C.ar    1  UNL1        0.1199
      3 N           0.4660    3.0290   -1.9100 N.ar    1  UNL1       -0.2633
      4 N          -0.2670    1.9570   -2.2430 N.ar    1  UNL1       -0.1716
      5 C           0.0920    1.0160   -1.3520 C.ar    1  UNL1        0.1021
      6 C          -0.5400   -0.3060   -1.3810 C.ar    1  UNL1        0.0029
      7 C          -0.8660   -0.9830   -0.1950 C.ar    1  UNL1       -0.0498
      8 C          -1.4620   -2.2460   -0.2410 C.ar    1  UNL1       -0.0258
      9 C          -1.7400   -2.8290   -1.4710 C.ar    1  UNL1        0.1234
     10 F          -2.3110   -4.0400   -1.5130 F       1  UNL1       -0.2055
     11 C          -1.4380   -2.1730   -2.6580 C.ar    1  UNL1       -0.0258
     12 C          -0.8420   -0.9110   -2.6120 C.ar    1  UNL1       -0.0498
     13 C           1.1090    1.5130   -0.4700 C.ar    1  UNL1        0.0488
     14 C           1.8470    0.8620    0.5980 C.ar    1  UNL1       -0.0097
     15 C           2.5560   -0.3130    0.3490 C.ar    1  UNL1       -0.0357
     16 C           3.2360   -0.9020    1.4020 C.ar    1  UNL1        0.0281
     17 N           3.2530   -0.4040    2.6570 N.ar    1  UNL1       -0.2632
     18 C           2.5580    0.7330    2.8710 C.ar    1  UNL1        0.0281
     19 C           1.8480    1.3970    1.8860 C.ar    1  UNL1       -0.0357
     20 H           2.4260    4.5650   -1.0480 H       1  UNL1        0.1437
     21 H           2.9710    3.4970    0.1360 H       1  UNL1        0.1437
     22 H           0.3370    3.8820   -2.4390 H       1  UNL1        0.1903
     23 H          -0.6740   -0.5310    0.7750 H       1  UNL1        0.0625
     24 H          -1.7150   -2.7730    0.6730 H       1  UNL1        0.0646
     25 H          -1.6710   -2.6410   -3.6080 H       1  UNL1        0.0646
     26 H          -0.6120   -0.3950   -3.5430 H       1  UNL1        0.0625
     27 H           2.5850   -0.7630   -0.6370 H       1  UNL1        0.0639
     28 H           3.8020   -1.8180    1.2580 H       1  UNL1        0.0830
     29 H           2.5870    1.1090    3.8900 H       1  UNL1        0.0830
     30 H           1.3040    2.3060    2.1220 H       1  UNL1        0.0639
@<TRIPOS>BOND
     1     1     2    1
     2     1    20    1
     3     1    21    1
     4     2     3   ar
     5     2    13   ar
     6     3     4   ar
     7     3    22    1
     8     4     5   ar
     9     5     6    1
    10     5    13   ar
    11     6     7   ar
    12     6    12   ar
    13     7     8   ar
    14     7    23    1
    15     8     9   ar
    16     8    24    1
    17     9    10    1
    18     9    11   ar
    19    11    12   ar
    20    11    25    1
    21    12    26    1
    22    13    14    1
    23    14    15   ar
    24    14    19   ar
    25    15    16   ar
    26    15    27    1
    27    16    17   ar
    28    16    28    1
    29    17    18   ar
    30    18    19   ar
    31    18    29    1
    32    19    30    1
@<TRIPOS>MOLECULE
AD3CC01561219-I00-C00
 43 46 0 0 0
SMALL
GASTEIGER

@<TRIPOS>ATOM
      1 O           3.5970   -2.4840    0.7550 O.2     1  UNL1       -0.2750
      2 C           2.5260   -2.5580    0.1550 C.2     1  UNL1        0.2237
      3 C           2.1130   -3.8730   -0.4960 C.3     1  UNL1        0.0495
      4 C           0.6250   -4.1170   -0.6050 C.ar    1  UNL1       -0.0386
      5 C          -0.0050   -4.1340   -1.8580 C.ar    1  UNL1       -0.0581
      6 C          -1.3810   -4.3450   -1.9540 C.ar    1  UNL1       -0.0615
      7 C          -2.1400   -4.5380   -0.8010 C.ar    1  UNL1       -0.0617
      8 C          -1.5240   -4.5220    0.4490 C.ar    1  UNL1       -0.0615
      9 C          -0.1480   -4.3150    0.5480 C.ar    1  UNL1       -0.0581
     10 N           1.6550   -1.5140   -0.0580 N.am    1  UNL1       -0.2534
     11 C           1.8360   -0.2460    0.4450 C.ar    1  UNL1        0.2338
     12 O           2.9580    0.0640    1.1420 O.2     1  UNL1       -0.3381
     13 N           2.8940    1.3770    1.5660 N.ar    1  UNL1       -0.0753
     14 C           1.7240    1.8540    1.1160 C.ar    1  UNL1        0.1273
     15 C           1.3320    3.2160    1.4550 C.ar    1  UNL1        0.0409
     16 C           1.8670    4.3140    0.7580 C.ar    1  UNL1        0.0517
     17 CL          2.9470    4.1200   -0.5820 Cl      1  UNL1       -0.0828
     18 C           1.5040    5.6220    1.0990 C.ar    1  UNL1       -0.0427
     19 C           0.6030    5.8520    2.1370 C.ar    1  UNL1       -0.0590
     20 C           0.0590    4.7730    2.8310 C.ar    1  UNL1       -0.0427
     21 C           0.4190    3.4630    2.4950 C.ar    1  UNL1        0.0517
     22 CL         -0.3180    2.1870    3.4030 Cl      1  UNL1       -0.0828
     23 C           1.0170    0.8640    0.3670 C.ar    1  UNL1        0.0898
     24 C          -0.2650    0.8730   -0.3230 C.ar    1  UNL1        0.0812
     25 C          -0.8310    2.0310   -0.8160 C.ar    1  UNL1       -0.0173
     26 C          -2.0470    1.8900   -1.4470 C.ar    1  UNL1        0.0313
     27 N          -2.6780    0.7130   -1.5940 N.ar    1  UNL1       -0.2437
     28 C          -2.0440   -0.3530   -1.0920 C.ar    1  UNL1        0.1166
     29 N          -0.8550   -0.3370   -0.4730 N.ar    1  UNL1       -0.2352
     30 H           2.5800   -3.9040   -1.4880 H       1  UNL1        0.0407
     31 H           2.5490   -4.6940    0.0870 H       1  UNL1        0.0407
     32 H           0.5710   -3.9890   -2.7700 H       1  UNL1        0.0620
     33 H          -1.8610   -4.3650   -2.9300 H       1  UNL1        0.0618
     34 H          -3.2110   -4.7090   -0.8760 H       1  UNL1        0.0618
     35 H          -2.1150   -4.6770    1.3480 H       1  UNL1        0.0618
     36 H           0.3180   -4.3090    1.5320 H       1  UNL1        0.0620
     37 H           0.7540   -1.6740   -0.5030 H       1  UNL1        0.1578
     38 H           1.9230    6.4670    0.5580 H       1  UNL1        0.0632
     39 H           0.3260    6.8690    2.4040 H       1  UNL1        0.0618
     40 H          -0.6440    4.9590    3.6410 H       1  UNL1        0.0632
     41 H          -0.3660    3.0020   -0.7480 H       1  UNL1        0.0654
     42 H          -2.5630    2.7490   -1.8670 H       1  UNL1        0.0831
     43 H          -2.5330   -1.3150   -1.1980 H       1  UNL1        0.1047
@<TRIPOS>BOND
     1     1     2    2
     2     2     3    1
     3     2    10   am
     4     3     4    1
     5     3    30    1
     6     3    31    1
     7     4     5   ar
     8     4     9   ar
     9     5     6   ar
    10     5    32    1
    11     6     7   ar
    12     6    33    1
    13     7     8   ar
    14     7    34    1
    15     8     9   ar
    16     8    35    1
    17     9    36    1
    18    10    11    1
    19    10    37    1
    20    11    12   ar
    21    11    23   ar
    22    12    13   ar
    23    13    14   ar
    24    14    15    1
    25    14    23   ar
    26    15    16   ar
    27    15    21   ar
    28    16    17    1
    29    16    18   ar
    30    18    19   ar
    31    18    38    1
    32    19    20   ar
    33    19    39    1
    34    20    21   ar
    35    20    40    1
    36    21    22    1
    37    23    24    1
    38    24    25   ar
    39    24    29   ar
    40    25    26   ar
    41    25    41    1
    42    26    27   ar
    43    26    42    1
    44    27    28   ar
    45    28    29   ar
    46    28    43    1
@<TRIPOS>MOLECULE
AD3CC01562695-I00-C00
 52 56 0 0 0
SMALL
GASTEIGER

@<TRIPOS>ATOM
      1 O           4.5190    4.6180   -3.3930 O.2     1  UNL1       -0.2679
      2 C           4.4010    4.0720   -2.3020 C.ar    1  UNL1        0.2493
      3 C           3.7170    2.7620   -2.1640 C.ar    1  UNL1        0.0119
      4 C           3.5930    2.1810   -0.9550 C.ar    1  UNL1        0.0069
      5 C           2.9140    0.9340   -0.8930 C.ar    1  UNL1        0.0745
      6 N           1.8090    0.8330   -0.0800 N.ar    1  UNL1       -0.3374
      7 C           1.2650   -0.4240   -0.2110 C.ar    1  UNL1        0.1393
      8 C           0.0690   -0.8960    0.4950 C.ar    1  UNL1        0.0173
      9 C          -0.2840   -2.2500    0.4070 C.ar    1  UNL1       -0.0505
     10 C          -1.4140   -2.7520    1.0660 C.ar    1  UNL1       -0.0518
     11 C          -2.2260   -1.9070    1.8310 C.ar    1  UNL1        0.0037
     12 C          -3.4050   -2.3900    2.5290 C.ar    1  UNL1        0.1126
     13 C          -3.9090   -3.6730    2.5390 C.ar    1  UNL1        0.0534
     14 N          -5.0130   -3.5860    3.3340 N.ar    1  UNL1       -0.2489
     15 C          -5.9370   -4.6350    3.6890 C.3     1  UNL1        0.0663
     16 C          -7.3110   -4.4240    3.0710 C.3     1  UNL1        0.0638
     17 O          -8.1330   -5.5560    3.3400 O.3     1  UNL1       -0.3932
     18 N          -5.1920   -2.3380    3.7950 N.ar    1  UNL1       -0.0651
     19 N          -4.2120   -1.5920    3.3040 N.ar    1  UNL1       -0.1295
     20 C          -1.8770   -0.5520    1.9180 C.ar    1  UNL1       -0.0518
     21 C          -0.7460   -0.0510    1.2580 C.ar    1  UNL1       -0.0505
     22 N           1.9910   -1.1290   -1.0600 N.ar    1  UNL1       -0.2271
     23 C           3.0190   -0.3140   -1.4810 C.ar    1  UNL1        0.0971
     24 C           4.0210   -0.7710   -2.4300 C.ar    1  UNL1        0.0026
     25 C           5.3580   -0.3520   -2.3620 C.ar    1  UNL1       -0.0498
     26 C           6.2940   -0.8160   -3.2910 C.ar    1  UNL1       -0.0258
     27 C           5.8960   -1.7050   -4.2810 C.ar    1  UNL1        0.1234
     28 F           6.7950   -2.1500   -5.1690 F       1  UNL1       -0.2055
     29 C           4.5810   -2.1450   -4.3600 C.ar    1  UNL1       -0.0258
     30 C           3.6450   -1.6810   -3.4320 C.ar    1  UNL1       -0.0498
     31 C           4.1490    2.8540    0.2120 C.ar    1  UNL1       -0.0363
     32 C           4.7670    4.0340    0.0880 C.ar    1  UNL1        0.0056
     33 N           4.8820    4.6240   -1.1410 N.ar    1  UNL1       -0.3291
     34 H           3.3330    2.3340   -3.0820 H       1  UNL1        0.0678
     35 H           1.4370    1.5730    0.4960 H       1  UNL1        0.1674
     36 H           0.3300   -2.9310   -0.1820 H       1  UNL1        0.0625
     37 H          -1.6380   -3.8100    0.9640 H       1  UNL1        0.0624
     38 H          -3.5990   -4.5970    2.0760 H       1  UNL1        0.0849
     39 H          -6.0020   -4.6730    4.7820 H       1  UNL1        0.0532
     40 H          -5.5140   -5.5930    3.3650 H       1  UNL1        0.0532
     41 H          -7.7970   -3.5350    3.4860 H       1  UNL1        0.0575
     42 H          -7.2380   -4.3030    1.9840 H       1  UNL1        0.0575
     43 H          -9.0170   -5.3580    2.9820 H       1  UNL1        0.2095
     44 H          -2.4900    0.1330    2.5020 H       1  UNL1        0.0624
     45 H          -0.5350    1.0090    1.3560 H       1  UNL1        0.0625
     46 H           5.6920    0.3240   -1.5790 H       1  UNL1        0.0625
     47 H           7.3290   -0.4930   -3.2430 H       1  UNL1        0.0646
     48 H           4.2900   -2.8450   -5.1360 H       1  UNL1        0.0646
     49 H           2.6160   -2.0310   -3.4900 H       1  UNL1        0.0625
     50 H           4.0730    2.3710    1.1810 H       1  UNL1        0.0639
     51 H           5.2020    4.5630    0.9310 H       1  UNL1        0.0808
     52 H           5.3520    5.5160   -1.2420 H       1  UNL1        0.1683
@<TRIPOS>BOND
     1     1     2    2
     2     2     3   ar
     3     2    33   ar
     4     3     4   ar
     5     3    34    1
     6     4     5    1
     7     4    31   ar
     8     5     6   ar
     9     5    23   ar
    10     6     7   ar
    11     6    35    1
    12     7     8    1
    13     7    22   ar
    14     8     9   ar
    15     8    21   ar
    16     9    10   ar
    17     9    36    1
    18    10    11   ar
    19    10    37    1
    20    11    12    1
    21    11    20   ar
    22    12    13   ar
    23    12    19   ar
    24    13    14   ar
    25    13    38    1
    26    14    15    1
    27    14    18   ar
    28    15    16    1
    29    15    39    1
    30    15    40    1
    31    16    17    1
    32    16    41    1
    33    16    42    1
    34    17    43    1
    35    18    19   ar
    36    20    21   ar
    37    20    44    1
    38    21    45    1
    39    22    23   ar
    40    23    24    1
    41    24    25   ar
    42    24    30   ar
    43    25    26   ar
    44    25    46    1
    45    26    27   ar
    46    26    47    1
    47    27    28    1
    48    27    29   ar
    49    29    30   ar
    50    29    48    1
    51    30    49    1
    52    31    32   ar
    53    31    50    1
    54    32    33   ar
    55    32    51    1
    56    33    52    1
@<TRIPOS>MOLECULE
AD3CC01562697-I00-C00
 68 72 0 0 0
SMALL
GASTEIGER

@<TRIPOS>ATOM
      1 C           0.2480    2.7220    4.4980 C.3     1  UNL1       -0.0411
      2 C          -0.9190    2.4960    5.4370 C.3     1  UNL1        0.0541
      3 O          -1.2200    1.1100    5.4660 O.3     1  UNL1       -0.3081
      4 P          -2.3340    0.6070    6.5130 P.3     1  UNL1        0.3346
      5 O          -2.1270    1.1010    7.9120 O.2     1  UNL1       -0.2584
      6 C          -3.9230    1.0030    5.8130 C.3     1  UNL1        0.0693
      7 C          -4.2470    0.2770    4.5210 C.3     1  UNL1        0.0541
      8 N          -3.4180    0.6840    3.4110 N.ar    1  UNL1       -0.2505
      9 C          -2.5080   -0.0590    2.7230 C.ar    1  UNL1        0.0533
     10 C          -2.0290    0.8080    1.7660 C.ar    1  UNL1        0.1126
     11 C          -1.0200    0.5390    0.7560 C.ar    1  UNL1        0.0037
     12 C          -0.2900   -0.6540    0.7330 C.ar    1  UNL1       -0.0518
     13 C           0.6730   -0.8820   -0.2590 C.ar    1  UNL1       -0.0505
     14 C           0.9290    0.0710   -1.2550 C.ar    1  UNL1        0.0173
     15 C           1.9370   -0.2210   -2.2800 C.ar    1  UNL1        0.1393
     16 N           2.8050   -1.2150   -2.2520 N.ar    1  UNL1       -0.2271
     17 C           3.5430   -1.1340   -3.4130 C.ar    1  UNL1        0.0971
     18 C           4.6010   -2.0840   -3.7180 C.ar    1  UNL1        0.0026
     19 C           4.8590   -2.5160   -5.0280 C.ar    1  UNL1       -0.0498
     20 C           5.8820   -3.4340   -5.2810 C.ar    1  UNL1       -0.0258
     21 C           6.6400   -3.9260   -4.2260 C.ar    1  UNL1        0.1234
     22 F           7.6180   -4.8080   -4.4710 F       1  UNL1       -0.2055
     23 C           6.3930   -3.5240   -2.9200 C.ar    1  UNL1       -0.0258
     24 C           5.3710   -2.6070   -2.6660 C.ar    1  UNL1       -0.0498
     25 C           3.1320   -0.0520   -4.1700 C.ar    1  UNL1        0.0745
     26 C           3.5090    0.5780   -5.3870 C.ar    1  UNL1        0.0069
     27 C           2.5930    0.7980   -6.4980 C.ar    1  UNL1       -0.0363
     28 C           3.0080    1.4080   -7.6140 C.ar    1  UNL1        0.0056
     29 N           4.3030    1.8350   -7.7220 N.ar    1  UNL1       -0.3291
     30 C           5.2470    1.6720   -6.7390 C.ar    1  UNL1        0.2493
     31 O           6.4010    2.0640   -6.8590 O.2     1  UNL1       -0.2679
     32 C           4.7850    0.9930   -5.5020 C.ar    1  UNL1        0.0119
     33 N           2.1050    0.5010   -3.4390 N.ar    1  UNL1       -0.3374
     34 C           0.2050    1.2690   -1.2250 C.ar    1  UNL1       -0.0505
     35 C          -0.7560    1.4990   -0.2310 C.ar    1  UNL1       -0.0518
     36 N          -2.6680    2.0170    1.9030 N.ar    1  UNL1       -0.1295
     37 N          -3.5230    1.9270    2.9130 N.ar    1  UNL1       -0.0651
     38 O          -2.2420   -0.9990    6.3740 O.3     1  UNL1       -0.3081
     39 C          -1.1040   -1.6230    6.9470 C.3     1  UNL1        0.0541
     40 C          -1.1120   -3.0870    6.5600 C.3     1  UNL1       -0.0411
     41 H           1.1240    2.1560    4.8290 H       1  UNL1        0.0252
     42 H           0.0080    2.3760    3.4890 H       1  UNL1        0.0252
     43 H           0.5110    3.7820    4.4520 H       1  UNL1        0.0252
     44 H          -1.7950    3.0520    5.0950 H       1  UNL1        0.0562
     45 H          -0.6560    2.8340    6.4440 H       1  UNL1        0.0562
     46 H          -4.0020    2.0880    5.6830 H       1  UNL1        0.0406
     47 H          -4.6810    0.7240    6.5550 H       1  UNL1        0.0406
     48 H          -4.1410   -0.8060    4.6390 H       1  UNL1        0.0515
     49 H          -5.2840    0.4750    4.2260 H       1  UNL1        0.0515
     50 H          -2.2890   -1.0860    2.9720 H       1  UNL1        0.0849
     51 H          -0.4460   -1.4250    1.4820 H       1  UNL1        0.0624
     52 H           1.2280   -1.8190   -0.2520 H       1  UNL1        0.0625
     53 H           4.2610   -2.1580   -5.8610 H       1  UNL1        0.0625
     54 H           6.0870   -3.7700   -6.2920 H       1  UNL1        0.0646
     55 H           6.9910   -3.9260   -2.1090 H       1  UNL1        0.0646
     56 H           5.1730   -2.2970   -1.6410 H       1  UNL1        0.0625
     57 H           1.5720    0.4380   -6.4140 H       1  UNL1        0.0639
     58 H           2.3590    1.5830   -8.4660 H       1  UNL1        0.0808
     59 H           4.6250    2.2960   -8.5650 H       1  UNL1        0.1683
     60 H           5.5320    0.8730   -4.7270 H       1  UNL1        0.0678
     61 H           1.5730    1.3170   -3.7010 H       1  UNL1        0.1674
     62 H           0.3730    2.0540   -1.9560 H       1  UNL1        0.0625
     63 H          -1.3000    2.4420   -0.2360 H       1  UNL1        0.0624
     64 H          -0.1920   -1.1420    6.5780 H       1  UNL1        0.0562
     65 H          -1.1460   -1.5190    8.0350 H       1  UNL1        0.0562
     66 H          -1.0900   -3.1980    5.4710 H       1  UNL1        0.0252
     67 H          -2.0280   -3.5740    6.9100 H       1  UNL1        0.0252
     68 H          -0.2510   -3.6090    6.9850 H       1  UNL1        0.0252
@<TRIPOS>BOND
     1     1     2    1
     2     1    41    1
     3     1    42    1
     4     1    43    1
     5     2     3    1
     6     2    44    1
     7     2    45    1
     8     4     3    1
     9     4     5    2
    10     4     6    1
    11     4    38    1
    12     6     7    1
    13     6    46    1
    14     6    47    1
    15     7     8    1
    16     7    48    1
    17     7    49    1
    18     8     9   ar
    19     8    37   ar
    20     9    10   ar
    21     9    50    1
    22    10    11    1
    23    10    36   ar
    24    11    12   ar
    25    11    35   ar
    26    12    13   ar
    27    12    51    1
    28    13    14   ar
    29    13    52    1
    30    14    15    1
    31    14    34   ar
    32    15    16   ar
    33    15    33   ar
    34    16    17   ar
    35    17    18    1
    36    17    25   ar
    37    18    19   ar
    38    18    24   ar
    39    19    20   ar
    40    19    53    1
    41    20    21   ar
    42    20    54    1
    43    21    22    1
    44    21    23   ar
    45    23    24   ar
    46    23    55    1
    47    24    56    1
    48    25    26    1
    49    25    33   ar
    50    26    27   ar
    51    26    32   ar
    52    27    28   ar
    53    27    57    1
    54    28    29   ar
    55    28    58    1
    56    29    30   ar
    57    29    59    1
    58    30    31    2
    59    30    32   ar
    60    32    60    1
    61    33    61    1
    62    34    35   ar
    63    34    62    1
    64    35    63    1
    65    36    37   ar
    66    38    39    1
    67    39    40    1
    68    39    64    1
    69    39    65    1
    70    40    66    1
    71    40    67    1
    72    40    68    1
@<TRIPOS>MOLECULE
AD3CC01579227-I00-C00
 55 58 0 0 0
SMALL
GASTEIGER

@<TRIPOS>ATOM
      1 C           5.3150    2.6820   -6.5760 C.3     1  UNL1       -0.0429
      2 C           4.5650    2.9480   -5.2720 C.3     1  UNL1        0.0471
      3 C           4.4350    4.4450   -4.9970 C.3     1  UNL1       -0.0429
      4 N           3.2640    2.2860   -5.2590 N.ar    1  UNL1       -0.2671
      5 C           2.8570    1.3090   -4.3920 C.ar    1  UNL1        0.0470
      6 C           1.5730    0.9820   -4.7600 C.ar    1  UNL1        0.0715
      7 N           0.8090    0.0250   -4.1210 N.am    1  UNL1       -0.2790
      8 C          -0.4580   -0.3440   -4.5290 C.2     1  UNL1        0.2484
      9 O          -1.0550    0.0700   -5.5150 O.2     1  UNL1       -0.2699
     10 C          -1.1100   -1.3720   -3.6760 C.ar    1  UNL1        0.0390
     11 C          -1.8200   -2.4020   -4.3000 C.ar    1  UNL1       -0.0495
     12 C          -2.4330   -3.3880   -3.5300 C.ar    1  UNL1       -0.0590
     13 C          -2.3500   -3.3380   -2.1370 C.ar    1  UNL1       -0.0362
     14 C          -1.6640   -2.2910   -1.4990 C.ar    1  UNL1        0.0661
     15 N          -1.6220   -2.2520   -0.0750 N.ar    1  UNL1       -0.2380
     16 C          -1.0480   -1.2920    0.7350 C.ar    1  UNL1        0.0525
     17 C          -1.2550   -1.6820    2.0370 C.ar    1  UNL1        0.0729
     18 N          -0.8240   -0.9620    3.1360 N.am    1  UNL1       -0.2665
     19 C          -1.0140   -1.3620    4.4510 C.2     1  UNL1        0.3082
     20 O          -1.5670   -2.4050    4.7740 O.2     1  UNL1       -0.2521
     21 N          -0.4930   -0.4270    5.3280 N.am    1  UNL1       -0.2679
     22 C          -0.4690   -0.4680    6.7430 C.ar    1  UNL1        0.0531
     23 C          -0.9680   -1.5360    7.4930 C.ar    1  UNL1       -0.0390
     24 C          -0.9110   -1.5130    8.8920 C.ar    1  UNL1       -0.0599
     25 C          -0.3540   -0.4230    9.5580 C.ar    1  UNL1       -0.0603
     26 C           0.1500    0.6490    8.8270 C.ar    1  UNL1       -0.0416
     27 C           0.0930    0.6260    7.4310 C.ar    1  UNL1        0.0622
     28 CL          0.7350    1.9850    6.5670 Cl      1  UNL1       -0.0816
     29 C          -1.9600   -2.8940    1.9300 C.ar    1  UNL1        0.0710
     30 N          -2.1850   -3.2420    0.6610 N.ar    1  UNL1       -0.1729
     31 C          -1.0410   -1.3030   -2.2750 C.ar    1  UNL1       -0.0241
     32 C           1.2940    1.8230   -5.8580 C.ar    1  UNL1        0.0706
     33 N           2.3220    2.6230   -6.1600 N.ar    1  UNL1       -0.1775
     34 H           6.3230    3.1090   -6.5370 H       1  UNL1        0.0250
     35 H           5.4100    1.6070   -6.7600 H       1  UNL1        0.0250
     36 H           4.7970    3.1220   -7.4360 H       1  UNL1        0.0250
     37 H           5.1430    2.5020   -4.4520 H       1  UNL1        0.0539
     38 H           3.8820    4.9550   -5.7930 H       1  UNL1        0.0250
     39 H           5.4230    4.9120   -4.9210 H       1  UNL1        0.0250
     40 H           3.9030    4.6250   -4.0560 H       1  UNL1        0.0250
     41 H           3.5070    0.9400   -3.6130 H       1  UNL1        0.0845
     42 H           1.2520   -0.4730   -3.3610 H       1  UNL1        0.1552
     43 H          -1.8930   -2.4380   -5.3860 H       1  UNL1        0.0625
     44 H          -2.9810   -4.1940   -4.0120 H       1  UNL1        0.0618
     45 H          -2.8430   -4.1190   -1.5580 H       1  UNL1        0.0639
     46 H          -0.5580   -0.4220    0.3290 H       1  UNL1        0.0850
     47 H          -0.3320   -0.1020    2.9530 H       1  UNL1        0.1565
     48 H          -0.1020    0.4160    4.9300 H       1  UNL1        0.1564
     49 H          -1.4100   -2.4090    7.0230 H       1  UNL1        0.0637
     50 H          -1.3050   -2.3530    9.4590 H       1  UNL1        0.0618
     51 H          -0.3140   -0.4120   10.6450 H       1  UNL1        0.0618
     52 H           0.5840    1.4980    9.3490 H       1  UNL1        0.0633
     53 H          -2.3240   -3.5400    2.7190 H       1  UNL1        0.0867
     54 H          -0.5260   -0.4640   -1.8190 H       1  UNL1        0.0646
     55 H           0.3890    1.8900   -6.4490 H       1  UNL1        0.0867
@<TRIPOS>BOND
     1     1     2    1
     2     1    34    1
     3     1    35    1
     4     1    36    1
     5     2     3    1
     6     2     4    1
     7     2    37    1
     8     3    38    1
     9     3    39    1
    10     3    40    1
    11     4     5   ar
    12     4    33   ar
    13     5     6   ar
    14     5    41    1
    15     6     7    1
    16     6    32   ar
    17     7     8   am
    18     7    42    1
    19     8     9    2
    20     8    10    1
    21    10    11   ar
    22    10    31   ar
    23    11    12   ar
    24    11    43    1
    25    12    13   ar
    26    12    44    1
    27    13    14   ar
    28    13    45    1
    29    14    15    1
    30    14    31   ar
    31    15    16   ar
    32    15    30   ar
    33    16    17   ar
    34    16    46    1
    35    17    18    1
    36    17    29   ar
    37    18    19   am
    38    18    47    1
    39    19    20    2
    40    19    21   am
    41    21    22    1
    42    21    48    1
    43    22    23   ar
    44    22    27   ar
    45    23    24   ar
    46    23    49    1
    47    24    25   ar
    48    24    50    1
    49    25    26   ar
    50    25    51    1
    51    26    27   ar
    52    26    52    1
    53    27    28    1
    54    29    30   ar
    55    29    53    1
    56    31    54    1
    57    32    33   ar
    58    32    55    1
@<TRIPOS>MOLECULE
AD3CC01585538-I00-C00
 40 42 0 0 0
SMALL
GASTEIGER

@<TRIPOS>ATOM
      1 N           5.0990    2.4040   -3.1940 N.1     1  UNL1       -0.1907
      2 C           5.2030    1.7370   -2.2490 C.1     1  UNL1        0.1028
      3 C           5.3490    0.8860   -1.1050 C.ar    1  UNL1        0.0939
      4 C           6.3050   -0.1380   -1.1270 C.ar    1  UNL1       -0.0408
      5 C           6.4640   -0.9760   -0.0220 C.ar    1  UNL1       -0.0603
      6 C           5.6740   -0.7940    1.1130 C.ar    1  UNL1       -0.0582
      7 C           4.7190    0.2230    1.1430 C.ar    1  UNL1       -0.0180
      8 C           4.5420    1.0510    0.0280 C.ar    1  UNL1        0.1457
      9 O           3.6330    2.0880    0.0500 O.3     1  UNL1       -0.4547
     10 C           2.3400    1.7800    0.4080 C.ar    1  UNL1        0.1285
     11 C           1.6360    0.7110   -0.1520 C.ar    1  UNL1       -0.0186
     12 C           0.3120    0.4730    0.2290 C.ar    1  UNL1       -0.0462
     13 C          -0.3140    1.3190    1.1550 C.ar    1  UNL1        0.0369
     14 C          -1.7210    1.1030    1.5950 C.2     1  UNL1        0.2443
     15 O          -2.0930    1.5000    2.6930 O.2     1  UNL1       -0.2702
     16 N          -2.5550    0.4760    0.6950 N.am    1  UNL1       -0.3072
     17 C          -3.9660    0.3510    0.9830 C.3     1  UNL1        0.0386
     18 C          -4.6340   -0.5650    0.0040 C.ar    1  UNL1       -0.0122
     19 C          -4.4340   -1.9480    0.0470 C.ar    1  UNL1       -0.0542
     20 C          -5.0590   -2.7660   -0.8890 C.ar    1  UNL1       -0.0433
     21 C          -5.8620   -2.1710   -1.8470 C.ar    1  UNL1        0.0276
     22 N          -6.0740   -0.8400   -1.9260 N.ar    1  UNL1       -0.2629
     23 C          -5.4590   -0.0690   -1.0000 C.ar    1  UNL1        0.0322
     24 C           0.3970    2.3930    1.7060 C.ar    1  UNL1       -0.0462
     25 C           1.7190    2.6310    1.3220 C.ar    1  UNL1       -0.0186
     26 H           6.9350   -0.2850   -2.0030 H       1  UNL1        0.0632
     27 H           7.2110   -1.7680   -0.0420 H       1  UNL1        0.0618
     28 H           5.8080   -1.4390    1.9790 H       1  UNL1        0.0619
     29 H           4.1230    0.3700    2.0410 H       1  UNL1        0.0655
     30 H           2.1050    0.0590   -0.8850 H       1  UNL1        0.0654
     31 H          -0.2070   -0.3850   -0.1900 H       1  UNL1        0.0626
     32 H          -2.2730    0.4280   -0.2750 H       1  UNL1        0.1493
     33 H          -4.4050    1.3550    0.9520 H       1  UNL1        0.0512
     34 H          -4.0980   -0.0250    2.0050 H       1  UNL1        0.0512
     35 H          -3.7950   -2.3880    0.8100 H       1  UNL1        0.0622
     36 H          -4.9230   -3.8420   -0.8720 H       1  UNL1        0.0633
     37 H          -6.3720   -2.7660   -2.5990 H       1  UNL1        0.0829
     38 H          -5.6560    0.9950   -1.0980 H       1  UNL1        0.0833
     39 H          -0.0790    3.0510    2.4300 H       1  UNL1        0.0626
     40 H           2.2620    3.4740    1.7410 H       1  UNL1        0.0654
@<TRIPOS>BOND
     1     1     2    3
     2     2     3    1
     3     3     4   ar
     4     3     8   ar
     5     4     5   ar
     6     4    26    1
     7     5     6   ar
     8     5    27    1
     9     6     7   ar
    10     6    28    1
    11     7     8   ar
    12     7    29    1
    13     8     9    1
    14     9    10    1
    15    10    11   ar
    16    10    25   ar
    17    11    12   ar
    18    11    30    1
    19    12    13   ar
    20    12    31    1
    21    13    14    1
    22    13    24   ar
    23    14    15    2
    24    14    16   am
    25    16    17    1
    26    16    32    1
    27    17    18    1
    28    17    33    1
    29    17    34    1
    30    18    19   ar
    31    18    23   ar
    32    19    20   ar
    33    19    35    1
    34    20    21   ar
    35    20    36    1
    36    21    22   ar
    37    21    37    1
    38    22    23   ar
    39    23    38    1
    40    24    25   ar
    41    24    39    1
    42    25    40    1
@<TRIPOS>MOLECULE
AD3CC01585540-I00-C01
 45 47 0 0 0
SMALL
GASTEIGER

@<TRIPOS>ATOM
      1 C          -4.3210   -2.0440    1.0320 C.3     1  UNL1       -0.0649
      2 C          -3.1990   -1.0290    1.1870 C.3     1  UNL1       -0.0505
      3 C          -1.8290   -1.6740    0.9570 C.3     1  UNL1       -0.0098
      4 C          -0.7050   -0.7080    1.1870 C.ar    1  UNL1        0.0570
      5 C          -0.1360    0.1550    0.2450 C.ar    1  UNL1        0.0780
      6 C          -0.5620    0.3580   -1.1430 C.2     1  UNL1        0.2515
      7 O          -1.7020    0.0900   -1.5000 O.2     1  UNL1       -0.2697
      8 N           0.4450    0.8370   -1.9660 N.am    1  UNL1       -0.2811
      9 C           0.3580    1.1890   -3.3360 C.ar    1  UNL1        0.0393
     10 C          -0.8540    1.1990   -4.0350 C.ar    1  UNL1       -0.0049
     11 C          -0.8890    1.5600   -5.3790 C.ar    1  UNL1        0.1252
     12 F          -2.0590    1.5640   -6.0300 F       1  UNL1       -0.2054
     13 C           0.2650    1.9200   -6.0560 C.ar    1  UNL1       -0.0261
     14 C           1.4790    1.9210   -5.3770 C.ar    1  UNL1       -0.0544
     15 C           1.5420    1.5610   -4.0170 C.ar    1  UNL1       -0.0291
     16 C           2.8890    1.5830   -3.3420 C.3     1  UNL1       -0.0380
     17 C           0.9190    0.7680    0.9370 C.ar    1  UNL1        0.0622
     18 N           1.0640    0.3140    2.1730 N.ar    1  UNL1       -0.1738
     19 N           0.0310   -0.5560    2.3690 N.ar    1  UNL1       -0.2360
     20 C          -0.1030   -1.1390    3.6750 C.ar    1  UNL1        0.0657
     21 C           0.9550   -0.9770    4.5930 C.ar    1  UNL1       -0.0363
     22 C           0.8900   -1.5210    5.8790 C.ar    1  UNL1       -0.0598
     23 C          -0.2380   -2.2290    6.2760 C.ar    1  UNL1       -0.0616
     24 C          -1.3000   -2.3830    5.3900 C.ar    1  UNL1       -0.0598
     25 C          -1.2360   -1.8390    4.1000 C.ar    1  UNL1       -0.0363
     26 H          -4.3180   -2.4820    0.0290 H       1  UNL1        0.0230
     27 H          -4.2200   -2.8530    1.7630 H       1  UNL1        0.0230
     28 H          -5.2910   -1.5630    1.1900 H       1  UNL1        0.0230
     29 H          -3.2590   -0.5740    2.1820 H       1  UNL1        0.0266
     30 H          -3.3600   -0.2130    0.4730 H       1  UNL1        0.0266
     31 H          -1.6990   -2.5800    1.5560 H       1  UNL1        0.0328
     32 H          -1.7800   -2.0390   -0.0770 H       1  UNL1        0.0328
     33 H           1.3680    0.8740   -1.5620 H       1  UNL1        0.1551
     34 H          -1.8000    0.9400   -3.5730 H       1  UNL1        0.0665
     35 H           0.2100    2.1970   -7.1040 H       1  UNL1        0.0646
     36 H           2.3810    2.2060   -5.9160 H       1  UNL1        0.0622
     37 H           3.6830    1.8930   -4.0310 H       1  UNL1        0.0278
     38 H           2.8850    2.2940   -2.5090 H       1  UNL1        0.0278
     39 H           3.1470    0.5850   -2.9750 H       1  UNL1        0.0278
     40 H           1.6090    1.5280    0.5920 H       1  UNL1        0.0856
     41 H           1.8570   -0.4310    4.3170 H       1  UNL1        0.0639
     42 H           1.7220   -1.3880    6.5650 H       1  UNL1        0.0618
     43 H          -0.2940   -2.6500    7.2760 H       1  UNL1        0.0618
     44 H          -2.1910   -2.9210    5.7060 H       1  UNL1        0.0618
     45 H          -2.1160   -1.9640    3.4880 H       1  UNL1        0.0639
@<TRIPOS>BOND
     1     1     2    1
     2     1    26    1
     3     1    27    1
     4     1    28    1
     5     2     3    1
     6     2    29    1
     7     2    30    1
     8     3     4    1
     9     3    31    1
    10     3    32    1
    11     4     5   ar
    12     4    19   ar
    13     5     6    1
    14     5    17   ar
    15     6     7    2
    16     6     8   am
    17     8     9    1
    18     8    33    1
    19     9    10   ar
    20     9    15   ar
    21    10    11   ar
    22    10    34    1
    23    11    12    1
    24    11    13   ar
    25    13    14   ar
    26    13    35    1
    27    14    15   ar
    28    14    36    1
    29    15    16    1
    30    16    37    1
    31    16    38    1
    32    16    39    1
    33    17    18   ar
    34    17    40    1
    35    18    19   ar
    36    19    20    1
    37    20    21   ar
    38    20    25   ar
    39    21    22   ar
    40    21    41    1
    41    22    23   ar
    42    22    42    1
    43    23    24   ar
    44    23    43    1
    45    24    25   ar
    46    24    44    1
    47    25    45    1
@<TRIPOS>MOLECULE
AD3CC01585545-I00-C01
 48 50 0 0 0
SMALL
GASTEIGER

@<TRIPOS>ATOM
      1 C           2.5290   -2.2740    2.5720 C.3     1  UNL1       -0.0649
      2 C           2.4020   -1.1520    1.5540 C.3     1  UNL1       -0.0505
      3 C           1.2780   -1.4320    0.5520 C.3     1  UNL1       -0.0098
      4 C           1.1920   -0.3760   -0.5090 C.ar    1  UNL1        0.0570
      5 C           0.4540    0.8100   -0.4520 C.ar    1  UNL1        0.0780
      6 C          -0.3280    1.3160    0.6790 C.2     1  UNL1        0.2515
      7 O          -0.0930    0.9500    1.8240 O.2     1  UNL1       -0.2697
      8 N          -1.3390    2.1870    0.3070 N.am    1  UNL1       -0.2812
      9 C          -2.2360    2.8970    1.1440 C.ar    1  UNL1        0.0374
     10 C          -2.1160    2.9070    2.5400 C.ar    1  UNL1       -0.0262
     11 C          -3.0190    3.6290    3.3350 C.ar    1  UNL1        0.0606
     12 C          -2.9200    3.6610    4.8150 C.2     1  UNL1        0.3369
     13 O          -3.6790    4.2480    5.5640 O.2     1  UNL1       -0.2451
     14 O          -1.8740    2.9630    5.2890 O.3     1  UNL1       -0.4771
     15 C          -4.0510    4.3500    2.7340 C.ar    1  UNL1       -0.0474
     16 C          -4.1790    4.3540    1.3470 C.ar    1  UNL1       -0.0563
     17 C          -3.2800    3.6360    0.5390 C.ar    1  UNL1       -0.0292
     18 C          -3.4780    3.6850   -0.9540 C.3     1  UNL1       -0.0380
     19 C           0.6420    1.3900   -1.7150 C.ar    1  UNL1        0.0622
     20 N           1.3700    0.6400   -2.5290 N.ar    1  UNL1       -0.1738
     21 N           1.7720   -0.4300   -1.7830 N.ar    1  UNL1       -0.2360
     22 C           2.6580   -1.3740   -2.4050 C.ar    1  UNL1        0.0657
     23 C           2.8650   -1.2820   -3.7970 C.ar    1  UNL1       -0.0363
     24 C           3.7120   -2.1710   -4.4650 C.ar    1  UNL1       -0.0598
     25 C           4.3760   -3.1630   -3.7540 C.ar    1  UNL1       -0.0616
     26 C           4.1970   -3.2590   -2.3770 C.ar    1  UNL1       -0.0598
     27 C           3.3470   -2.3690   -1.7050 C.ar    1  UNL1       -0.0363
     28 H           1.5990   -2.4000    3.1350 H       1  UNL1        0.0230
     29 H           2.7660   -3.2230    2.0810 H       1  UNL1        0.0230
     30 H           3.3300   -2.0510    3.2840 H       1  UNL1        0.0230
     31 H           3.3620   -1.0190    1.0420 H       1  UNL1        0.0266
     32 H           2.2130   -0.2120    2.0850 H       1  UNL1        0.0266
     33 H           1.3640   -2.4290    0.1110 H       1  UNL1        0.0328
     34 H           0.3240   -1.4710    1.0950 H       1  UNL1        0.0328
     35 H          -1.5090    2.2670   -0.6840 H       1  UNL1        0.1551
     36 H          -1.3180    2.3660    3.0380 H       1  UNL1        0.0644
     37 H          -1.9330    3.0680    6.2610 H       1  UNL1        0.2954
     38 H          -4.7580    4.9120    3.3420 H       1  UNL1        0.0626
     39 H          -4.9900    4.9250    0.8990 H       1  UNL1        0.0621
     40 H          -3.6590    2.6790   -1.3460 H       1  UNL1        0.0278
     41 H          -2.5980    4.1180   -1.4390 H       1  UNL1        0.0278
     42 H          -4.3400    4.3020   -1.2280 H       1  UNL1        0.0278
     43 H           0.2700    2.3340   -2.0940 H       1  UNL1        0.0856
     44 H           2.3610   -0.5190   -4.3880 H       1  UNL1        0.0639
     45 H           3.8500   -2.0830   -5.5390 H       1  UNL1        0.0618
     46 H           5.0370   -3.8550   -4.2690 H       1  UNL1        0.0618
     47 H           4.7290   -4.0240   -1.8160 H       1  UNL1        0.0618
     48 H           3.2950   -2.4800   -0.6330 H       1  UNL1        0.0639
@<TRIPOS>BOND
     1     1     2    1
     2     1    28    1
     3     1    29    1
     4     1    30    1
     5     2     3    1
     6     2    31    1
     7     2    32    1
     8     3     4    1
     9     3    33    1
    10     3    34    1
    11     4     5   ar
    12     4    21   ar
    13     5     6    1
    14     5    19   ar
    15     6     7    2
    16     6     8   am
    17     8     9    1
    18     8    35    1
    19     9    10   ar
    20     9    17   ar
    21    10    11   ar
    22    10    36    1
    23    11    12    1
    24    11    15   ar
    25    12    13    2
    26    12    14    1
    27    14    37    1
    28    15    16   ar
    29    15    38    1
    30    16    17   ar
    31    16    39    1
    32    17    18    1
    33    18    40    1
    34    18    41    1
    35    18    42    1
    36    19    20   ar
    37    19    43    1
    38    20    21   ar
    39    21    22    1
    40    22    23   ar
    41    22    27   ar
    42    23    24   ar
    43    23    44    1
    44    24    25   ar
    45    24    45    1
    46    25    26   ar
    47    25    46    1
    48    26    27   ar
    49    26    47    1
    50    27    48    1
@<TRIPOS>MOLECULE
AD3CC01585548-I00-C00
 59 61 0 0 0
SMALL
GASTEIGER

@<TRIPOS>ATOM
      1 C           0.8580   -3.7790    0.3060 C.3     1  UNL1       -0.0649
      2 C          -0.1610   -2.7550    0.7800 C.3     1  UNL1       -0.0505
      3 C          -0.8160   -2.0320   -0.3990 C.3     1  UNL1       -0.0102
      4 C          -1.8170   -1.0190    0.0680 C.ar    1  UNL1        0.0517
      5 C          -1.6600    0.2050    0.7180 C.ar    1  UNL1        0.0776
      6 C          -0.4480    0.9180    1.1030 C.2     1  UNL1        0.2515
      7 O          -0.4180    1.5970    2.1230 O.2     1  UNL1       -0.2697
      8 N           0.5720    0.8160    0.1770 N.am    1  UNL1       -0.2811
      9 C           1.8900    1.3100    0.2980 C.ar    1  UNL1        0.0384
     10 C           2.4190    1.6940    1.5340 C.ar    1  UNL1       -0.0138
     11 C           3.7150    2.2090    1.6190 C.ar    1  UNL1        0.1072
     12 S           4.3630    2.6820    3.2100 S.O2    1  UNL1        0.0604
     13 O           5.7900    2.8800    3.0510 O.2     1  UNL1       -0.1529
     14 O           3.8500    1.7410    4.1820 O.2     1  UNL1       -0.1529
     15 N           3.6540    4.2030    3.4870 N.3     1  UNL1       -0.1827
     16 C           2.2090    4.2320    3.7820 C.3     1  UNL1        0.0086
     17 C           4.0880    5.3050    2.6120 C.3     1  UNL1        0.0086
     18 C           4.5200    2.3010    0.4860 C.ar    1  UNL1       -0.0350
     19 C           4.0130    1.8890   -0.7450 C.ar    1  UNL1       -0.0552
     20 C           2.7020    1.3910   -0.8550 C.ar    1  UNL1       -0.0291
     21 C           2.2120    0.9680   -2.2150 C.3     1  UNL1       -0.0380
     22 C          -2.9760    0.6170    1.0160 C.ar    1  UNL1        0.0618
     23 N          -3.8990   -0.2180    0.5440 N.ar    1  UNL1       -0.1783
     24 N          -3.1830   -1.2060   -0.0330 N.ar    1  UNL1       -0.2632
     25 C          -3.9070   -2.3380   -0.6120 C.3     1  UNL1        0.0668
     26 C          -3.9400   -2.2910   -2.1210 C.ar    1  UNL1       -0.0261
     27 C          -3.5150   -3.3960   -2.8750 C.ar    1  UNL1       -0.0568
     28 C          -3.5610   -3.3650   -4.2700 C.ar    1  UNL1       -0.0614
     29 C          -4.0410   -2.2340   -4.9280 C.ar    1  UNL1       -0.0617
     30 C          -4.4820   -1.1370   -4.1920 C.ar    1  UNL1       -0.0614
     31 C          -4.4370   -1.1660   -2.7980 C.ar    1  UNL1       -0.0568
     32 H           1.6570   -3.3000   -0.2690 H       1  UNL1        0.0230
     33 H           1.3130   -4.2860    1.1630 H       1  UNL1        0.0230
     34 H           0.3870   -4.5380   -0.3270 H       1  UNL1        0.0230
     35 H           0.3380   -2.0370    1.4410 H       1  UNL1        0.0266
     36 H          -0.9270   -3.2610    1.3810 H       1  UNL1        0.0266
     37 H          -0.0500   -1.5480   -1.0130 H       1  UNL1        0.0328
     38 H          -1.2800   -2.7730   -1.0560 H       1  UNL1        0.0328
     39 H           0.2940    0.4670   -0.7280 H       1  UNL1        0.1551
     40 H           1.8460    1.5820    2.4510 H       1  UNL1        0.0656
     41 H           1.6170    4.1860    2.8640 H       1  UNL1        0.0408
     42 H           1.9190    3.4130    4.4460 H       1  UNL1        0.0408
     43 H           1.9650    5.1630    4.3040 H       1  UNL1        0.0408
     44 H           3.7720    6.2620    3.0390 H       1  UNL1        0.0408
     45 H           5.1780    5.3390    2.5320 H       1  UNL1        0.0408
     46 H           3.6510    5.2100    1.6140 H       1  UNL1        0.0408
     47 H           5.5400    2.6760    0.5520 H       1  UNL1        0.0637
     48 H           4.6530    1.9570   -1.6230 H       1  UNL1        0.0621
     49 H           1.9650   -0.0980   -2.2140 H       1  UNL1        0.0278
     50 H           2.9720    1.1280   -2.9870 H       1  UNL1        0.0278
     51 H           1.3300    1.5500   -2.5000 H       1  UNL1        0.0278
     52 H          -3.2910    1.5040    1.5530 H       1  UNL1        0.0855
     53 H          -4.9310   -2.3270   -0.2180 H       1  UNL1        0.0558
     54 H          -3.4240   -3.2480   -0.2390 H       1  UNL1        0.0558
     55 H          -3.1450   -4.2930   -2.3820 H       1  UNL1        0.0621
     56 H          -3.2270   -4.2250   -4.8440 H       1  UNL1        0.0618
     57 H          -4.0800   -2.2120   -6.0140 H       1  UNL1        0.0618
     58 H          -4.8670   -0.2580   -4.7040 H       1  UNL1        0.0618
     59 H          -4.7960   -0.3020   -2.2390 H       1  UNL1        0.0621
@<TRIPOS>BOND
     1     1     2    1
     2     1    32    1
     3     1    33    1
     4     1    34    1
     5     2     3    1
     6     2    35    1
     7     2    36    1
     8     3     4    1
     9     3    37    1
    10     3    38    1
    11     4     5   ar
    12     4    24   ar
    13     5     6    1
    14     5    22   ar
    15     6     7    2
    16     6     8   am
    17     8     9    1
    18     8    39    1
    19     9    10   ar
    20     9    20   ar
    21    10    11   ar
    22    10    40    1
    23    11    12    1
    24    11    18   ar
    25    12    13    2
    26    12    14    2
    27    12    15    1
    28    15    16    1
    29    15    17    1
    30    16    41    1
    31    16    42    1
    32    16    43    1
    33    17    44    1
    34    17    45    1
    35    17    46    1
    36    18    19   ar
    37    18    47    1
    38    19    20   ar
    39    19    48    1
    40    20    21    1
    41    21    49    1
    42    21    50    1
    43    21    51    1
    44    22    23   ar
    45    22    52    1
    46    23    24   ar
    47    24    25    1
    48    25    26    1
    49    25    53    1
    50    25    54    1
    51    26    27   ar
    52    26    31   ar
    53    27    28   ar
    54    27    55    1
    55    28    29   ar
    56    28    56    1
    57    29    30   ar
    58    29    57    1
    59    30    31   ar
    60    30    58    1
    61    31    59    1
@<TRIPOS>MOLECULE
AD3CC01586110-I00-C01
 57 59 0 0 0
SMALL
GASTEIGER

@<TRIPOS>ATOM
      1 C          -1.9690    0.5350   -5.5770 C.3     1  UNL1        0.0395
      2 O          -0.9060    0.3230   -4.6610 O.3     1  UNL1       -0.3528
      3 C          -1.3690    0.1260   -3.3200 C.3     1  UNL1        0.1762
      4 C          -0.1300    0.0710   -2.4150 C.3     1  UNL1        0.0767
      5 N          -0.4860    0.0990   -1.0060 N.ar    1  UNL1       -0.3130
      6 C          -0.8650    1.1930   -0.2770 C.ar    1  UNL1        0.1743
      7 S          -0.4860    2.8170   -0.7520 S.3     1  UNL1       -0.0592
      8 C           0.5220    3.1980    0.6080 C.2     1  UNL1       -0.0142
      9 C           1.7170    2.6740    0.9250 C.2     1  UNL1        0.0289
     10 C           2.4820    1.6570    0.1820 C.2     1  UNL1        0.3300
     11 O           2.3790    1.3530   -0.9890 O.2     1  UNL1       -0.2458
     12 O           3.3490    1.0550    1.0160 O.3     1  UNL1       -0.4775
     13 N          -1.4390    0.8470    0.8500 N.ar    1  UNL1       -0.2209
     14 C          -1.2040   -0.5060    0.9690 C.ar    1  UNL1        0.0979
     15 C          -1.6010   -1.2390    2.1590 C.ar    1  UNL1        0.0026
     16 C          -2.8540   -0.9650    2.7330 C.ar    1  UNL1       -0.0498
     17 C          -3.2780   -1.6440    3.8770 C.ar    1  UNL1       -0.0258
     18 C          -2.4440   -2.5920    4.4560 C.ar    1  UNL1        0.1234
     19 F          -2.8480   -3.2450    5.5530 F       1  UNL1       -0.2055
     20 C          -1.1930   -2.8680    3.9160 C.ar    1  UNL1       -0.0258
     21 C          -0.7690   -2.1880    2.7710 C.ar    1  UNL1       -0.0498
     22 C          -0.5140   -0.9840   -0.1390 C.ar    1  UNL1        0.0776
     23 C           0.1910   -2.2300   -0.3960 C.ar    1  UNL1        0.0053
     24 C          -0.4580   -3.4230   -0.6700 C.ar    1  UNL1       -0.0343
     25 C           0.3320   -4.5390   -0.8860 C.ar    1  UNL1        0.0303
     26 N           1.6880   -4.5360   -0.8420 N.ar    1  UNL1       -0.2401
     27 C           2.2990   -3.3640   -0.5720 C.ar    1  UNL1        0.1255
     28 N           3.6940   -3.4290   -0.5470 N.am    1  UNL1       -0.2706
     29 C           4.5900   -2.4170   -0.2820 C.2     1  UNL1        0.2152
     30 C           6.0230   -2.8790   -0.3670 C.3     1  UNL1        0.0125
     31 O           4.3250   -1.2560    0.0270 O.2     1  UNL1       -0.2757
     32 C           1.5880   -2.2040   -0.3460 C.ar    1  UNL1       -0.0123
     33 O          -2.0780   -1.1140   -3.2270 O.3     1  UNL1       -0.3528
     34 C          -3.3780   -0.9570   -2.6760 C.3     1  UNL1        0.0395
     35 H          -2.5980   -0.3560   -5.6560 H       1  UNL1        0.0525
     36 H          -1.5380    0.7390   -6.5610 H       1  UNL1        0.0525
     37 H          -2.5720    1.3980   -5.2780 H       1  UNL1        0.0525
     38 H          -2.0030    0.9790   -3.0410 H       1  UNL1        0.0928
     39 H           0.4440   -0.8380   -2.6210 H       1  UNL1        0.0543
     40 H           0.5380    0.9100   -2.6300 H       1  UNL1        0.0543
     41 H           0.1060    3.9400    1.2840 H       1  UNL1        0.0697
     42 H           2.1950    3.0000    1.8440 H       1  UNL1        0.0694
     43 H           3.7780    0.3210    0.5010 H       1  UNL1        0.2954
     44 H          -3.5020   -0.2130    2.2860 H       1  UNL1        0.0625
     45 H          -4.2460   -1.4340    4.3190 H       1  UNL1        0.0646
     46 H          -0.5520   -3.6020    4.3930 H       1  UNL1        0.0646
     47 H           0.2240   -2.3940    2.3830 H       1  UNL1        0.0625
     48 H          -1.5380   -3.4870   -0.7210 H       1  UNL1        0.0639
     49 H          -0.1180   -5.5020   -1.1110 H       1  UNL1        0.0830
     50 H           4.0330   -4.3600   -0.7530 H       1  UNL1        0.1562
     51 H           6.6440   -2.0580   -0.7390 H       1  UNL1        0.0323
     52 H           6.3650   -3.1750    0.6280 H       1  UNL1        0.0323
     53 H           6.1310   -3.7230   -1.0540 H       1  UNL1        0.0323
     54 H           2.0820   -1.2670   -0.1320 H       1  UNL1        0.0658
     55 H          -3.8480   -1.9430   -2.6190 H       1  UNL1        0.0525
     56 H          -3.3270   -0.5380   -1.6670 H       1  UNL1        0.0525
     57 H          -3.9910   -0.3160   -3.3170 H       1  UNL1        0.0525
@<TRIPOS>BOND
     1     1     2    1
     2     1    35    1
     3     1    36    1
     4     1    37    1
     5     2     3    1
     6     3     4    1
     7     3    33    1
     8     3    38    1
     9     4     5    1
    10     4    39    1
    11     4    40    1
    12     5     6   ar
    13     5    22   ar
    14     6     7    1
    15     6    13   ar
    16     7     8    1
    17     8     9    2
    18     8    41    1
    19     9    10    1
    20     9    42    1
    21    10    11    2
    22    10    12    1
    23    12    43    1
    24    13    14   ar
    25    14    15    1
    26    14    22   ar
    27    15    16   ar
    28    15    21   ar
    29    16    17   ar
    30    16    44    1
    31    17    18   ar
    32    17    45    1
    33    18    19    1
    34    18    20   ar
    35    20    21   ar
    36    20    46    1
    37    21    47    1
    38    22    23    1
    39    23    24   ar
    40    23    32   ar
    41    24    25   ar
    42    24    48    1
    43    25    26   ar
    44    25    49    1
    45    26    27   ar
    46    27    28    1
    47    27    32   ar
    48    28    29   am
    49    28    50    1
    50    29    30    1
    51    29    31    2
    52    30    51    1
    53    30    52    1
    54    30    53    1
    55    32    54    1
    56    33    34    1
    57    34    55    1
    58    34    56    1
    59    34    57    1
@<TRIPOS>MOLECULE
AD3CC01683114-I00-C00
 66 70 0 0 0
SMALL
GASTEIGER

@<TRIPOS>ATOM
      1 C           1.4170    8.1390    2.4030 C.3     1  UNL1        0.0788
      2 O           1.7310    7.7310    3.7290 O.3     1  UNL1       -0.4950
      3 C           1.5630    6.4060    4.0240 C.ar    1  UNL1        0.1239
      4 C           1.7180    6.0870    5.3720 C.ar    1  UNL1       -0.0197
      5 C           1.5610    4.7740    5.8050 C.ar    1  UNL1       -0.0545
      6 C           1.2610    3.7670    4.8840 C.ar    1  UNL1       -0.0161
      7 C           1.1290    4.0530    3.5180 C.ar    1  UNL1        0.1332
      8 N           0.8240    3.0370    2.5690 N.am    1  UNL1       -0.1144
      9 C           0.0360    3.2550    1.4590 C.2     1  UNL1        0.3836
     10 O          -0.4510    4.2740    0.9990 O.2     1  UNL1       -0.2370
     11 C          -0.1610    1.8790    0.9130 C.2     1  UNL1        0.2633
     12 C          -0.8960    1.6570   -0.1840 C.2     1  UNL1        0.0039
     13 C          -1.1490    0.3610   -0.8340 C.ar    1  UNL1       -0.0205
     14 C          -1.2690   -0.8380   -0.1240 C.ar    1  UNL1       -0.0510
     15 C          -1.5450   -2.0440   -0.7830 C.ar    1  UNL1       -0.0194
     16 C          -1.7180   -2.0650   -2.1650 C.ar    1  UNL1        0.1212
     17 O          -1.9890   -3.1660   -2.9280 O.3     1  UNL1       -0.4828
     18 C          -2.0930   -4.4140   -2.2430 C.3     1  UNL1        0.1655
     19 C          -2.3860   -5.5610   -3.2170 C.2     1  UNL1        0.2548
     20 O          -2.5350   -6.7060   -2.7990 O.2     1  UNL1       -0.2717
     21 N          -2.4480   -5.1410   -4.5330 N.am    1  UNL1       -0.2825
     22 C          -2.6930   -5.9010   -5.6960 C.ar    1  UNL1        0.0364
     23 C          -2.9210   -7.2820   -5.6530 C.ar    1  UNL1       -0.0402
     24 C          -3.1610   -8.0070   -6.8230 C.ar    1  UNL1       -0.0600
     25 C          -3.1750   -7.3620   -8.0540 C.ar    1  UNL1       -0.0614
     26 C          -2.9500   -5.9890   -8.1150 C.ar    1  UNL1       -0.0571
     27 C          -2.7070   -5.2440   -6.9460 C.ar    1  UNL1       -0.0292
     28 C          -2.4700   -3.7640   -7.0810 C.3     1  UNL1       -0.0380
     29 C          -1.6170   -0.8700   -2.8790 C.ar    1  UNL1       -0.0194
     30 C          -1.3410    0.3330   -2.2210 C.ar    1  UNL1       -0.0510
     31 N           0.5240    0.9710    1.6790 N.2     1  UNL1       -0.0328
     32 C           1.0970    1.6880    2.6030 C.2     1  UNL1        0.3337
     33 C           2.0330    1.0580    3.5540 C.ar    1  UNL1        0.0665
     34 C           1.6400   -0.1140    4.2090 C.ar    1  UNL1       -0.0468
     35 C           2.5200   -0.7420    5.0910 C.ar    1  UNL1       -0.0609
     36 C           3.7930   -0.2120    5.3020 C.ar    1  UNL1       -0.0617
     37 C           4.1960    0.9410    4.6260 C.ar    1  UNL1       -0.0609
     38 C           3.3210    1.5730    3.7420 C.ar    1  UNL1       -0.0468
     39 C           1.2710    5.3910    3.1070 C.ar    1  UNL1        0.0253
     40 H           2.1210    7.7090    1.6830 H       1  UNL1        0.0660
     41 H           0.3820    7.8890    2.1440 H       1  UNL1        0.0660
     42 H           1.5170    9.2280    2.3560 H       1  UNL1        0.0660
     43 H           1.9470    6.8700    6.0900 H       1  UNL1        0.0654
     44 H           1.6580    4.5350    6.8610 H       1  UNL1        0.0620
     45 H           1.0920    2.7690    5.2780 H       1  UNL1        0.0658
     46 H          -1.3510    2.5130   -0.6810 H       1  UNL1        0.0669
     47 H          -1.1500   -0.8540    0.9570 H       1  UNL1        0.0625
     48 H          -1.6180   -2.9420   -0.1770 H       1  UNL1        0.0654
     49 H          -2.9220   -4.3820   -1.5260 H       1  UNL1        0.0795
     50 H          -1.1460   -4.6520   -1.7450 H       1  UNL1        0.0795
     51 H          -2.2950   -4.1450   -4.6510 H       1  UNL1        0.1549
     52 H          -2.9210   -7.8310   -4.7180 H       1  UNL1        0.0636
     53 H          -3.3360   -9.0780   -6.7660 H       1  UNL1        0.0618
     54 H          -3.3620   -7.9260   -8.9630 H       1  UNL1        0.0618
     55 H          -2.9640   -5.5000   -9.0870 H       1  UNL1        0.0621
     56 H          -1.4760   -3.5020   -6.7040 H       1  UNL1        0.0278
     57 H          -2.5190   -3.4390   -8.1260 H       1  UNL1        0.0278
     58 H          -3.2320   -3.2050   -6.5290 H       1  UNL1        0.0278
     59 H          -1.7540   -0.8680   -3.9570 H       1  UNL1        0.0654
     60 H          -1.2700    1.2460   -2.8080 H       1  UNL1        0.0625
     61 H           0.6550   -0.5390    4.0330 H       1  UNL1        0.0626
     62 H           2.2170   -1.6510    5.6060 H       1  UNL1        0.0618
     63 H           4.4790   -0.7060    5.9870 H       1  UNL1        0.0618
     64 H           5.1950    1.3400    4.7810 H       1  UNL1        0.0618
     65 H           3.6530    2.4570    3.2040 H       1  UNL1        0.0626
     66 H           1.1820    5.6340    2.0540 H       1  UNL1        0.0695
@<TRIPOS>BOND
     1     1     2    1
     2     1    40    1
     3     1    41    1
     4     1    42    1
     5     2     3    1
     6     3     4   ar
     7     3    39   ar
     8     4     5   ar
     9     4    43    1
    10     5     6   ar
    11     5    44    1
    12     6     7   ar
    13     6    45    1
    14     7     8    1
    15     7    39   ar
    16     8     9   am
    17     8    32    1
    18     9    10    2
    19     9    11    1
    20    11    12    2
    21    11    31    1
    22    12    13    1
    23    12    46    1
    24    13    14   ar
    25    13    30   ar
    26    14    15   ar
    27    14    47    1
    28    15    16   ar
    29    15    48    1
    30    16    17    1
    31    16    29   ar
    32    17    18    1
    33    18    19    1
    34    18    49    1
    35    18    50    1
    36    19    20    2
    37    19    21   am
    38    21    22    1
    39    21    51    1
    40    22    23   ar
    41    22    27   ar
    42    23    24   ar
    43    23    52    1
    44    24    25   ar
    45    24    53    1
    46    25    26   ar
    47    25    54    1
    48    26    27   ar
    49    26    55    1
    50    27    28    1
    51    28    56    1
    52    28    57    1
    53    28    58    1
    54    29    30   ar
    55    29    59    1
    56    30    60    1
    57    31    32    2
    58    32    33    1
    59    33    34   ar
    60    33    38   ar
    61    34    35   ar
    62    34    61    1
    63    35    36   ar
    64    35    62    1
    65    36    37   ar
    66    36    63    1
    67    37    38   ar
    68    37    64    1
    69    38    65    1
    70    39    66    1
@<TRIPOS>MOLECULE
AD3CC01704200-I00-C00
 48 52 0 0 0
SMALL
GASTEIGER

@<TRIPOS>ATOM
      1 C          -2.4130   -2.8970    3.8530 C.3     1  UNL1       -0.0222
      2 C          -2.5580   -2.1760    2.5470 C.ar    1  UNL1        0.0417
      3 C          -3.7470   -2.2440    1.8400 C.ar    1  UNL1       -0.0053
      4 C          -3.8200   -1.5650    0.6350 C.ar    1  UNL1        0.1272
      5 F          -4.9510   -1.6200   -0.0810 F       1  UNL1       -0.2054
      6 C          -2.7470   -0.8360    0.1530 C.ar    1  UNL1        0.0011
      7 C          -1.6020   -0.8050    0.9260 C.ar    1  UNL1        0.0922
      8 C          -0.3920   -0.0990    0.5390 C.ar    1  UNL1        0.0927
      9 N           0.8450   -0.5210    0.9720 N.ar    1  UNL1       -0.3389
     10 C           1.8120    0.2560    0.3920 C.ar    1  UNL1        0.1254
     11 C           3.2680    0.0100    0.6360 C.3     1  UNL1        0.0672
     12 N           3.5860   -1.2260    1.3610 N.pl3   1  UNL1       -0.3367
     13 C           3.7180   -2.4390    0.6760 C.ar    1  UNL1        0.0275
     14 C           4.2850   -3.5250    1.3620 C.ar    1  UNL1       -0.0408
     15 C           4.3850   -4.7890    0.7730 C.ar    1  UNL1       -0.0600
     16 C           3.8940   -4.9970   -0.5110 C.ar    1  UNL1       -0.0616
     17 C           3.2940   -3.9450   -1.1950 C.ar    1  UNL1       -0.0600
     18 C           3.1960   -2.6820   -0.6000 C.ar    1  UNL1       -0.0408
     19 N           1.2650    1.1910   -0.3590 N.ar    1  UNL1       -0.2302
     20 C          -0.0940    1.0040   -0.2430 C.ar    1  UNL1        0.0998
     21 C          -0.9770    1.9190   -0.8990 C.ar    1  UNL1        0.0208
     22 C          -2.1190    2.5170   -0.1920 C.ar    1  UNL1       -0.0475
     23 C          -2.9590    3.3870   -0.7860 C.ar    1  UNL1       -0.0167
     24 C          -2.7400    3.7580   -2.1390 C.ar    1  UNL1        0.1557
     25 N          -3.3910    4.5610   -2.9490 N.ar    1  UNL1       -0.2149
     26 C          -2.6580    4.4870   -4.0950 C.ar    1  UNL1        0.1390
     27 N          -1.5930    3.6870   -4.0590 N.ar    1  UNL1       -0.1535
     28 N          -1.6330    3.2080   -2.7900 N.ar    1  UNL1       -0.2198
     29 C          -0.7700    2.3090   -2.1740 C.ar    1  UNL1        0.0407
     30 N          -1.4900   -1.4710    2.1030 N.ar    1  UNL1       -0.2502
     31 H          -2.5540   -3.9730    3.7090 H       1  UNL1        0.0293
     32 H          -1.4170   -2.7370    4.2780 H       1  UNL1        0.0293
     33 H          -3.1530   -2.5300    4.5720 H       1  UNL1        0.0293
     34 H          -4.5970   -2.8110    2.2000 H       1  UNL1        0.0664
     35 H          -2.8210   -0.3370   -0.8030 H       1  UNL1        0.0668
     36 H           1.0210   -1.3130    1.5790 H       1  UNL1        0.1672
     37 H           3.6310    0.8470    1.2460 H       1  UNL1        0.0541
     38 H           3.8260    0.0660   -0.3070 H       1  UNL1        0.0541
     39 H           4.3580   -1.0900    2.0100 H       1  UNL1        0.1465
     40 H           4.6550   -3.3950    2.3760 H       1  UNL1        0.0636
     41 H           4.8390   -5.6090    1.3220 H       1  UNL1        0.0618
     42 H           3.9670   -5.9780   -0.9730 H       1  UNL1        0.0618
     43 H           2.8930   -4.1040   -2.1930 H       1  UNL1        0.0618
     44 H           2.7030   -1.8980   -1.1680 H       1  UNL1        0.0636
     45 H          -2.2650    2.2560    0.8530 H       1  UNL1        0.0626
     46 H          -3.7940    3.8280   -0.2530 H       1  UNL1        0.0655
     47 H          -2.9120    5.0370   -4.9930 H       1  UNL1        0.1066
     48 H           0.0550    1.9550   -2.7790 H       1  UNL1        0.0837
@<TRIPOS>BOND
     1     1     2    1
     2     1    31    1
     3     1    32    1
     4     1    33    1
     5     2     3   ar
     6     2    30   ar
     7     3     4   ar
     8     3    34    1
     9     4     5    1
    10     4     6   ar
    11     6     7   ar
    12     6    35    1
    13     7     8    1
    14     7    30   ar
    15     8     9   ar
    16     8    20   ar
    17     9    10   ar
    18     9    36    1
    19    10    11    1
    20    10    19   ar
    21    11    12    1
    22    11    37    1
    23    11    38    1
    24    12    13    1
    25    12    39    1
    26    13    14   ar
    27    13    18   ar
    28    14    15   ar
    29    14    40    1
    30    15    16   ar
    31    15    41    1
    32    16    17   ar
    33    16    42    1
    34    17    18   ar
    35    17    43    1
    36    18    44    1
    37    19    20   ar
    38    20    21    1
    39    21    22   ar
    40    21    29   ar
    41    22    23   ar
    42    22    45    1
    43    23    24   ar
    44    23    46    1
    45    24    25   ar
    46    24    28   ar
    47    25    26   ar
    48    26    27   ar
    49    26    47    1
    50    27    28   ar
    51    28    29   ar
    52    29    48    1
@<TRIPOS>MOLECULE
AD3CC01709063-I00-C00
 52 56 0 0 0
SMALL
GASTEIGER

@<TRIPOS>ATOM
      1 O           2.6680   -2.0840   -2.7920 O.2     1  UNL1       -0.2700
      2 C           1.5650   -2.3730   -2.3350 C.2     1  UNL1        0.2468
      3 C           1.3480   -2.1710   -0.8830 C.ar    1  UNL1        0.0375
      4 C           2.2810   -2.6860    0.0220 C.ar    1  UNL1       -0.0496
      5 C           2.1020   -2.4860    1.3910 C.ar    1  UNL1       -0.0604
      6 C           1.0040   -1.7540    1.8510 C.ar    1  UNL1       -0.0525
      7 C           0.0780   -1.1990    0.9500 C.ar    1  UNL1        0.0035
      8 C          -1.0650   -0.4160    1.4300 C.ar    1  UNL1        0.1025
      9 N          -2.2460   -1.0840    1.4030 N.ar    1  UNL1       -0.1486
     10 N          -3.3770   -0.4710    1.8230 N.ar    1  UNL1       -0.1550
     11 C          -3.2990    0.8070    2.2590 C.ar    1  UNL1        0.0760
     12 C          -2.1380    1.5520    2.3040 C.ar    1  UNL1        0.0949
     13 N          -2.1630    2.8300    2.7450 N.ar    1  UNL1       -0.2303
     14 C          -1.0140    3.5420    2.7870 C.ar    1  UNL1        0.1237
     15 N          -1.1450    4.8620    3.2190 N.pl3   1  UNL1       -0.2972
     16 C          -0.2880    5.7110    3.9480 C.ar    1  UNL1        0.0682
     17 C          -0.5670    7.0900    3.9230 C.ar    1  UNL1       -0.0350
     18 C           0.2450    8.0040    4.6010 C.ar    1  UNL1       -0.0245
     19 C           1.3460    7.5460    5.3120 C.ar    1  UNL1        0.1262
     20 F           2.1230    8.4230    5.9610 F       1  UNL1       -0.2054
     21 C           1.6480    6.1940    5.3610 C.ar    1  UNL1        0.0106
     22 C           0.8330    5.2890    4.6820 C.ar    1  UNL1        0.1472
     23 F           1.1310    3.9860    4.7930 F       1  UNL1       -0.2035
     24 C           0.1860    3.0060    2.3500 C.ar    1  UNL1       -0.0209
     25 C           0.2160    1.6890    1.8960 C.ar    1  UNL1       -0.0472
     26 C          -0.9670    0.9200    1.8710 C.ar    1  UNL1        0.0297
     27 C           0.2640   -1.4130   -0.4260 C.ar    1  UNL1       -0.0404
     28 N           0.5100   -2.8520   -3.1150 N.am    1  UNL1       -0.2932
     29 C           0.7860   -3.0450   -4.5420 C.3     1  UNL1        0.0385
     30 C          -0.5030   -3.1110   -5.3650 C.3     1  UNL1        0.0635
     31 O          -1.4010   -4.1040   -4.8450 O.3     1  UNL1       -0.3767
     32 C          -1.7540   -3.7980   -3.4870 C.3     1  UNL1        0.0635
     33 C          -0.5150   -3.7660   -2.5860 C.3     1  UNL1        0.0385
     34 H           3.1420   -3.2420   -0.3420 H       1  UNL1        0.0625
     35 H           2.8180   -2.8970    2.1010 H       1  UNL1        0.0618
     36 H           0.8730   -1.6170    2.9250 H       1  UNL1        0.0624
     37 H          -4.2420    1.2380    2.5810 H       1  UNL1        0.0870
     38 H          -2.1280    5.0230    3.4270 H       1  UNL1        0.1536
     39 H          -1.4190    7.4610    3.3560 H       1  UNL1        0.0638
     40 H           0.0270    9.0680    4.5740 H       1  UNL1        0.0647
     41 H           2.5010    5.8420    5.9290 H       1  UNL1        0.0675
     42 H           1.0950    3.6000    2.3400 H       1  UNL1        0.0652
     43 H           1.1630    1.2770    1.5540 H       1  UNL1        0.0626
     44 H          -0.4340   -0.9860   -1.1440 H       1  UNL1        0.0632
     45 H           1.4280   -2.2380   -4.9160 H       1  UNL1        0.0487
     46 H           1.3380   -3.9890   -4.6320 H       1  UNL1        0.0487
     47 H          -0.2740   -3.3750   -6.4030 H       1  UNL1        0.0575
     48 H          -1.0130   -2.1390   -5.3730 H       1  UNL1        0.0575
     49 H          -2.2810   -2.8360   -3.4640 H       1  UNL1        0.0575
     50 H          -2.4480   -4.5710   -3.1400 H       1  UNL1        0.0575
     51 H          -0.8030   -3.5100   -1.5640 H       1  UNL1        0.0487
     52 H          -0.0530   -4.7610   -2.5530 H       1  UNL1        0.0487
@<TRIPOS>BOND
     1     1     2    2
     2     2     3    1
     3     2    28   am
     4     3     4   ar
     5     3    27   ar
     6     4     5   ar
     7     4    34    1
     8     5     6   ar
     9     5    35    1
    10     6     7   ar
    11     6    36    1
    12     7     8    1
    13     7    27   ar
    14     8     9   ar
    15     8    26   ar
    16     9    10   ar
    17    10    11   ar
    18    11    12   ar
    19    11    37    1
    20    12    13   ar
    21    12    26   ar
    22    13    14   ar
    23    14    15    1
    24    14    24   ar
    25    15    16    1
    26    15    38    1
    27    16    17   ar
    28    16    22   ar
    29    17    18   ar
    30    17    39    1
    31    18    19   ar
    32    18    40    1
    33    19    20    1
    34    19    21   ar
    35    21    22   ar
    36    21    41    1
    37    22    23    1
    38    24    25   ar
    39    24    42    1
    40    25    26   ar
    41    25    43    1
    42    27    44    1
    43    28    29    1
    44    28    33    1
    45    29    30    1
    46    29    45    1
    47    29    46    1
    48    30    31    1
    49    30    47    1
    50    30    48    1
    51    31    32    1
    52    32    33    1
    53    32    49    1
    54    32    50    1
    55    33    51    1
    56    33    52    1
@<TRIPOS>MOLECULE
AD3CC01709065-I00-C00
 46 49 0 0 0
SMALL
GASTEIGER

@<TRIPOS>ATOM
      1 C           3.8530   -3.7320    0.3720 C.3     1  UNL1       -0.0361
      2 C           3.6220   -3.8230   -1.1080 C.ar    1  UNL1       -0.0054
      3 C           4.7050   -3.9600   -1.9860 C.ar    1  UNL1       -0.0201
      4 C           4.4850   -4.0340   -3.3600 C.ar    1  UNL1        0.1239
      5 F           5.5310   -4.1690   -4.1860 F       1  UNL1       -0.2055
      6 C           3.2010   -3.9750   -3.8880 C.ar    1  UNL1       -0.0230
      7 C           2.1140   -3.8310   -3.0290 C.ar    1  UNL1       -0.0163
      8 C           2.3290   -3.7340   -1.6490 C.ar    1  UNL1        0.1334
      9 O           1.2440   -3.6330   -0.8100 O.3     1  UNL1       -0.4378
     10 C           0.6910   -2.3630   -0.6690 C.ar    1  UNL1        0.2211
     11 C          -0.4600   -2.2850    0.0920 C.ar    1  UNL1        0.0011
     12 C          -1.0400   -1.0340    0.2700 C.ar    1  UNL1       -0.0454
     13 C          -0.4560    0.1120   -0.3160 C.ar    1  UNL1        0.0299
     14 C          -0.9550    1.4250   -0.2040 C.ar    1  UNL1        0.1027
     15 C          -2.1690    1.7750    0.5460 C.ar    1  UNL1        0.0064
     16 C          -2.0360    2.2610    1.8620 C.ar    1  UNL1       -0.0401
     17 C          -3.1620    2.5900    2.6260 C.ar    1  UNL1        0.0371
     18 C          -3.0460    3.1000    4.0160 C.2     1  UNL1        0.2416
     19 N          -1.8910    3.7530    4.3500 N.am    1  UNL1       -0.3253
     20 O          -3.9560    2.9750    4.8250 O.2     1  UNL1       -0.2704
     21 C          -4.4370    2.4120    2.0860 C.ar    1  UNL1       -0.0494
     22 C          -4.5870    1.9470    0.7790 C.ar    1  UNL1       -0.0575
     23 C          -3.4640    1.6420   -0.0070 C.ar    1  UNL1       -0.0412
     24 C          -3.6740    1.1550   -1.4180 C.3     1  UNL1       -0.0391
     25 N          -0.3300    2.4840   -0.7720 N.ar    1  UNL1       -0.1485
     26 N           0.8020    2.2960   -1.4890 N.ar    1  UNL1       -0.1550
     27 C           1.2910    1.0430   -1.6180 C.ar    1  UNL1        0.0760
     28 C           0.7160   -0.0790   -1.0610 C.ar    1  UNL1        0.0967
     29 N           1.2820   -1.2900   -1.2390 N.ar    1  UNL1       -0.2109
     30 H           4.8840   -3.9960    0.6310 H       1  UNL1        0.0279
     31 H           3.1950   -4.4240    0.9070 H       1  UNL1        0.0279
     32 H           3.6660   -2.7110    0.7200 H       1  UNL1        0.0279
     33 H           5.7250   -4.0120   -1.6160 H       1  UNL1        0.0650
     34 H           3.0570   -4.0410   -4.9620 H       1  UNL1        0.0647
     35 H           1.1060   -3.7840   -3.4300 H       1  UNL1        0.0655
     36 H          -0.8940   -3.1740    0.5370 H       1  UNL1        0.0671
     37 H          -1.9450   -0.9570    0.8680 H       1  UNL1        0.0626
     38 H          -1.0400    2.3580    2.2880 H       1  UNL1        0.0632
     39 H          -1.8950    4.2120    5.2520 H       1  UNL1        0.1453
     40 H          -1.2760    4.1360    3.6450 H       1  UNL1        0.1453
     41 H          -5.3200    2.6480    2.6790 H       1  UNL1        0.0625
     42 H          -5.5920    1.8330    0.3750 H       1  UNL1        0.0621
     43 H          -4.7090    1.3090   -1.7420 H       1  UNL1        0.0278
     44 H          -3.0360    1.7060   -2.1170 H       1  UNL1        0.0278
     45 H          -3.4550    0.0860   -1.4870 H       1  UNL1        0.0278
     46 H           2.1990    0.9630   -2.2060 H       1  UNL1        0.0870
@<TRIPOS>BOND
     1     1     2    1
     2     1    30    1
     3     1    31    1
     4     1    32    1
     5     2     3   ar
     6     2     8   ar
     7     3     4   ar
     8     3    33    1
     9     4     5    1
    10     4     6   ar
    11     6     7   ar
    12     6    34    1
    13     7     8   ar
    14     7    35    1
    15     8     9    1
    16     9    10    1
    17    10    11   ar
    18    10    29   ar
    19    11    12   ar
    20    11    36    1
    21    12    13   ar
    22    12    37    1
    23    13    14   ar
    24    13    28   ar
    25    14    15    1
    26    14    25   ar
    27    15    16   ar
    28    15    23   ar
    29    16    17   ar
    30    16    38    1
    31    17    18    1
    32    17    21   ar
    33    18    19   am
    34    18    20    2
    35    19    39    1
    36    19    40    1
    37    21    22   ar
    38    21    41    1
    39    22    23   ar
    40    22    42    1
    41    23    24    1
    42    24    43    1
    43    24    44    1
    44    24    45    1
    45    25    26   ar
    46    26    27   ar
    47    27    28   ar
    48    27    46    1
    49    28    29   ar
@<TRIPOS>MOLECULE
AD3CC01727874-I00-C00
 43 45 0 0 0
SMALL
GASTEIGER

@<TRIPOS>ATOM
      1 C           1.2820    8.4690    0.0770 C.3     1  UNL1       -0.0495
      2 C           0.9520    7.7680   -1.2290 C.3     1  UNL1        0.0102
      3 N           0.9740    6.3260   -1.0910 N.am    1  UNL1       -0.2994
      4 C          -0.0970    5.6440   -0.5520 C.2     1  UNL1        0.3049
      5 O          -1.1340    6.2020   -0.2200 O.2     1  UNL1       -0.2525
      6 N           0.1640    4.3030   -0.4660 N.am    1  UNL1       -0.2541
      7 C          -0.6490    3.2950    0.0530 C.ar    1  UNL1        0.1286
      8 C          -1.8540    3.5200    0.6920 C.ar    1  UNL1       -0.0193
      9 C          -2.5630    2.4210    1.1690 C.ar    1  UNL1       -0.0294
     10 C          -2.0660    1.1410    1.0060 C.ar    1  UNL1        0.1081
     11 N          -2.7590    0.0870    1.4770 N.ar    1  UNL1       -0.2484
     12 C          -2.1870   -1.1210    1.2680 C.ar    1  UNL1        0.0684
     13 C          -0.9810   -1.2870    0.5990 C.ar    1  UNL1        0.1436
     14 N          -0.3750   -2.5270    0.3920 N.pl3   1  UNL1       -0.2982
     15 C          -0.9080   -3.8030    0.1440 C.ar    1  UNL1        0.0326
     16 C          -2.2400   -4.0350   -0.2140 C.ar    1  UNL1       -0.0371
     17 C          -2.7210   -5.3370   -0.4190 C.ar    1  UNL1       -0.0182
     18 C          -1.8740   -6.4320   -0.2620 C.ar    1  UNL1        0.1202
     19 O          -2.2140   -7.7450   -0.4290 O.3     1  UNL1       -0.4951
     20 C          -3.5610   -8.0200   -0.7930 C.3     1  UNL1        0.0788
     21 C          -0.5450   -6.2120    0.0970 C.ar    1  UNL1       -0.0182
     22 C          -0.0680   -4.9130    0.2980 C.ar    1  UNL1       -0.0371
     23 N          -0.2960   -0.2100    0.1580 N.ar    1  UNL1       -0.2094
     24 C          -0.8240    1.0050    0.3440 C.ar    1  UNL1        0.1819
     25 N          -0.1390    2.0580   -0.1140 N.ar    1  UNL1       -0.2108
     26 H           2.2680    8.1650    0.4450 H       1  UNL1        0.0245
     27 H           1.2880    9.5540   -0.0640 H       1  UNL1        0.0245
     28 H           0.5490    8.2290    0.8540 H       1  UNL1        0.0245
     29 H           1.6920    8.0300   -1.9930 H       1  UNL1        0.0460
     30 H          -0.0350    8.0810   -1.5860 H       1  UNL1        0.0460
     31 H           1.8800    5.8880   -1.0120 H       1  UNL1        0.1502
     32 H           0.9850    3.9440   -0.9260 H       1  UNL1        0.1578
     33 H          -2.2620    4.5130    0.8360 H       1  UNL1        0.0653
     34 H          -3.5130    2.5670    1.6750 H       1  UNL1        0.0641
     35 H          -2.7270   -1.9640    1.6860 H       1  UNL1        0.0865
     36 H           0.5250   -2.3790   -0.0570 H       1  UNL1        0.1536
     37 H          -2.9270   -3.2100   -0.3800 H       1  UNL1        0.0637
     38 H          -3.7600   -5.4550   -0.7060 H       1  UNL1        0.0655
     39 H          -3.8050   -7.5800   -1.7650 H       1  UNL1        0.0660
     40 H          -4.2560   -7.6800   -0.0180 H       1  UNL1        0.0660
     41 H          -3.6680   -9.1050   -0.8820 H       1  UNL1        0.0660
     42 H           0.1260   -7.0570    0.2250 H       1  UNL1        0.0655
     43 H           0.9700   -4.7760    0.5910 H       1  UNL1        0.0637
@<TRIPOS>BOND
     1     1     2    1
     2     1    26    1
     3     1    27    1
     4     1    28    1
     5     2     3    1
     6     2    29    1
     7     2    30    1
     8     3     4   am
     9     3    31    1
    10     4     5    2
    11     4     6   am
    12     6     7    1
    13     6    32    1
    14     7     8   ar
    15     7    25   ar
    16     8     9   ar
    17     8    33    1
    18     9    10   ar
    19     9    34    1
    20    10    11   ar
    21    10    24   ar
    22    11    12   ar
    23    12    13   ar
    24    12    35    1
    25    13    14    1
    26    13    23   ar
    27    14    15    1
    28    14    36    1
    29    15    16   ar
    30    15    22   ar
    31    16    17   ar
    32    16    37    1
    33    17    18   ar
    34    17    38    1
    35    18    19    1
    36    18    21   ar
    37    19    20    1
    38    20    39    1
    39    20    40    1
    40    20    41    1
    41    21    22   ar
    42    21    42    1
    43    22    43    1
    44    23    24   ar
    45    24    25   ar
@<TRIPOS>MOLECULE
AD3CC01727876-I00-C00
 38 40 0 0 0
SMALL
GASTEIGER

@<TRIPOS>ATOM
      1 C          -3.8290    0.6740   -5.7370 C.3     1  UNL1       -0.0495
      2 C          -3.9640    1.6290   -4.5640 C.3     1  UNL1        0.0102
      3 N          -3.3380    1.1070   -3.3660 N.am    1  UNL1       -0.2994
      4 C          -1.9750    1.1990   -3.1750 C.2     1  UNL1        0.3049
      5 O          -1.2340    1.7680   -3.9660 O.2     1  UNL1       -0.2525
      6 N          -1.5980    0.5930   -2.0060 N.am    1  UNL1       -0.2541
      7 C          -0.3130    0.4440   -1.4840 C.ar    1  UNL1        0.1286
      8 C           0.8430    0.8020   -2.1510 C.ar    1  UNL1       -0.0193
      9 C           2.0640    0.5920   -1.5160 C.ar    1  UNL1       -0.0294
     10 C           2.1100    0.0380   -0.2500 C.ar    1  UNL1        0.1081
     11 N           3.2970   -0.1650    0.3530 N.ar    1  UNL1       -0.2484
     12 C           3.2330   -0.7130    1.5870 C.ar    1  UNL1        0.0684
     13 C           2.0370   -1.0320    2.2170 C.ar    1  UNL1        0.1436
     14 N           1.9560   -1.6100    3.4840 N.pl3   1  UNL1       -0.2970
     15 C           2.7400   -1.4580    4.6380 C.ar    1  UNL1        0.0508
     16 C           3.6880   -0.4500    4.8180 C.ar    1  UNL1       -0.0376
     17 C           4.4460   -0.3960    5.9900 C.ar    1  UNL1       -0.0418
     18 C           4.2380   -1.3630    6.9580 C.ar    1  UNL1        0.0277
     19 N           3.3390   -2.3580    6.8310 N.ar    1  UNL1       -0.2614
     20 C           2.6210   -2.3810    5.6810 C.ar    1  UNL1        0.0487
     21 N           0.8630   -0.8390    1.5810 N.ar    1  UNL1       -0.2094
     22 C           0.8780   -0.3010    0.3560 C.ar    1  UNL1        0.1819
     23 N          -0.2960   -0.1030   -0.2520 N.ar    1  UNL1       -0.2108
     24 H          -4.3350    1.0790   -6.6180 H       1  UNL1        0.0245
     25 H          -4.2750   -0.2980   -5.5010 H       1  UNL1        0.0245
     26 H          -2.7780    0.5040   -5.9940 H       1  UNL1        0.0245
     27 H          -3.5150    2.5970   -4.8130 H       1  UNL1        0.0460
     28 H          -5.0210    1.7910   -4.3310 H       1  UNL1        0.0460
     29 H          -3.8160    0.3570   -2.8900 H       1  UNL1        0.1502
     30 H          -2.3180    0.3090   -1.3600 H       1  UNL1        0.1578
     31 H           0.8340    1.2330   -3.1460 H       1  UNL1        0.0653
     32 H           2.9890    0.8630   -2.0170 H       1  UNL1        0.0641
     33 H           4.1930   -0.9140    2.0500 H       1  UNL1        0.0865
     34 H           0.9780   -1.8080    3.6860 H       1  UNL1        0.1536
     35 H           3.8330    0.3310    4.0780 H       1  UNL1        0.0637
     36 H           5.1770    0.3900    6.1440 H       1  UNL1        0.0633
     37 H           4.8020   -1.3600    7.8860 H       1  UNL1        0.0829
     38 H           1.9190   -3.2080    5.6120 H       1  UNL1        0.0848
@<TRIPOS>BOND
     1     1     2    1
     2     1    24    1
     3     1    25    1
     4     1    26    1
     5     2     3    1
     6     2    27    1
     7     2    28    1
     8     3     4   am
     9     3    29    1
    10     4     5    2
    11     4     6   am
    12     6     7    1
    13     6    30    1
    14     7     8   ar
    15     7    23   ar
    16     8     9   ar
    17     8    31    1
    18     9    10   ar
    19     9    32    1
    20    10    11   ar
    21    10    22   ar
    22    11    12   ar
    23    12    13   ar
    24    12    33    1
    25    13    14    1
    26    13    21   ar
    27    14    15    1
    28    14    34    1
    29    15    16   ar
    30    15    20   ar
    31    16    17   ar
    32    16    35    1
    33    17    18   ar
    34    17    36    1
    35    18    19   ar
    36    18    37    1
    37    19    20   ar
    38    20    38    1
    39    21    22   ar
    40    22    23   ar
@<TRIPOS>MOLECULE
AD3CC01727883-I00-C00
 49 51 0 0 0
SMALL
GASTEIGER

@<TRIPOS>ATOM
      1 C           3.7320    0.6520    4.2660 C.3     1  UNL1        0.0790
      2 O           3.0260    0.3110    5.4540 O.3     1  UNL1       -0.4914
      3 C           1.7820   -0.2410    5.2900 C.ar    1  UNL1        0.1619
      4 C           1.1640   -0.5390    4.0730 C.ar    1  UNL1       -0.0071
      5 C          -0.1280   -1.1140    4.0190 C.ar    1  UNL1        0.0056
      6 C          -0.7530   -1.4210    2.7150 C.ar    1  UNL1        0.0916
      7 C          -1.6970   -2.4220    2.5270 C.ar    1  UNL1        0.0544
      8 N          -2.2600   -2.6870    1.3260 N.ar    1  UNL1       -0.2497
      9 C          -1.8410   -1.9170    0.3020 C.ar    1  UNL1        0.1081
     10 C          -2.3590   -2.1120   -0.9650 C.ar    1  UNL1       -0.0294
     11 C          -1.9330   -1.3250   -2.0310 C.ar    1  UNL1       -0.0193
     12 C          -0.9810   -0.3520   -1.7880 C.ar    1  UNL1        0.1286
     13 N          -0.4720    0.5090   -2.7600 N.am    1  UNL1       -0.2541
     14 C          -0.7270    0.5230   -4.1040 C.2     1  UNL1        0.3049
     15 O          -1.4520   -0.2580   -4.7100 O.2     1  UNL1       -0.2525
     16 N          -0.0600    1.5510   -4.7330 N.am    1  UNL1       -0.2991
     17 C          -0.1440    1.7830   -6.1630 C.3     1  UNL1        0.0131
     18 C          -1.2600    2.7560   -6.5510 C.3     1  UNL1       -0.0353
     19 C          -2.6970    2.2910   -6.2850 C.3     1  UNL1       -0.0283
     20 C          -3.2120    1.2230   -7.2450 C.3     1  UNL1        0.0443
     21 O          -2.4350    0.0400   -7.2260 O.3     1  UNL1       -0.3950
     22 N          -0.4610   -0.1400   -0.5630 N.ar    1  UNL1       -0.2108
     23 C          -0.8740   -0.8970    0.4590 C.ar    1  UNL1        0.1807
     24 N          -0.3420   -0.6660    1.6620 N.ar    1  UNL1       -0.2244
     25 C          -0.7820   -1.3660    5.2420 C.ar    1  UNL1       -0.0488
     26 C          -0.1720   -1.0740    6.4640 C.ar    1  UNL1       -0.0159
     27 C           1.0990   -0.5200    6.4750 C.ar    1  UNL1        0.1585
     28 O           1.6740   -0.2440    7.6850 O.3     1  UNL1       -0.5033
     29 H           3.9520   -0.2390    3.6680 H       1  UNL1        0.0660
     30 H           3.1840    1.3990    3.6810 H       1  UNL1        0.0660
     31 H           4.6870    1.0970    4.5620 H       1  UNL1        0.0660
     32 H           1.6710   -0.3360    3.1330 H       1  UNL1        0.0662
     33 H          -2.0310   -3.0640    3.3340 H       1  UNL1        0.0851
     34 H          -3.1040   -2.8860   -1.1260 H       1  UNL1        0.0641
     35 H          -2.3570   -1.4970   -3.0130 H       1  UNL1        0.0653
     36 H           0.2350    1.1280   -2.3960 H       1  UNL1        0.1578
     37 H           0.3140    2.2950   -4.1630 H       1  UNL1        0.1502
     38 H           0.8180    2.2230   -6.4510 H       1  UNL1        0.0462
     39 H          -0.2230    0.8290   -6.6890 H       1  UNL1        0.0462
     40 H          -1.1040    3.6920   -5.9980 H       1  UNL1        0.0281
     41 H          -1.1570    3.0040   -7.6140 H       1  UNL1        0.0281
     42 H          -3.3570    3.1630   -6.3760 H       1  UNL1        0.0288
     43 H          -2.7940    1.9440   -5.2520 H       1  UNL1        0.0288
     44 H          -4.2420    0.9560   -6.9870 H       1  UNL1        0.0557
     45 H          -3.2170    1.6040   -8.2710 H       1  UNL1        0.0557
     46 H          -2.2630   -0.1990   -6.2880 H       1  UNL1        0.2094
     47 H          -1.7880   -1.7770    5.2680 H       1  UNL1        0.0625
     48 H          -0.6860   -1.2710    7.4000 H       1  UNL1        0.0655
     49 H           2.5460    0.1390    7.4670 H       1  UNL1        0.2923
@<TRIPOS>BOND
     1     1     2    1
     2     1    29    1
     3     1    30    1
     4     1    31    1
     5     2     3    1
     6     3     4   ar
     7     3    27   ar
     8     4     5   ar
     9     4    32    1
    10     5     6    1
    11     5    25   ar
    12     6     7   ar
    13     6    24   ar
    14     7     8   ar
    15     7    33    1
    16     8     9   ar
    17     9    10   ar
    18     9    23   ar
    19    10    11   ar
    20    10    34    1
    21    11    12   ar
    22    11    35    1
    23    12    13    1
    24    12    22   ar
    25    13    14   am
    26    13    36    1
    27    14    15    2
    28    14    16   am
    29    16    17    1
    30    16    37    1
    31    17    18    1
    32    17    38    1
    33    17    39    1
    34    18    19    1
    35    18    40    1
    36    18    41    1
    37    19    20    1
    38    19    42    1
    39    19    43    1
    40    20    21    1
    41    20    44    1
    42    20    45    1
    43    21    46    1
    44    22    23   ar
    45    23    24   ar
    46    25    26   ar
    47    25    47    1
    48    26    27   ar
    49    26    48    1
    50    27    28    1
    51    28    49    1
@<TRIPOS>MOLECULE
AD3CC01727908-I00-C00
 45 48 0 0 0
SMALL
GASTEIGER

@<TRIPOS>ATOM
      1 C           6.4460   -6.6480   -1.3530 C.3     1  UNL1       -0.0495
      2 C           6.4870   -6.0100    0.0250 C.3     1  UNL1        0.0102
      3 N           5.6670   -4.8170    0.0940 N.am    1  UNL1       -0.2994
      4 C           4.3010   -4.8980    0.2660 C.2     1  UNL1        0.3049
      5 O           3.7180   -5.9630    0.4240 O.2     1  UNL1       -0.2525
      6 N           3.7250   -3.6560    0.2450 N.am    1  UNL1       -0.2541
      7 C           2.3740   -3.3260    0.3500 C.ar    1  UNL1        0.1286
      8 C           1.3480   -4.2520    0.3850 C.ar    1  UNL1       -0.0193
      9 C           0.0410   -3.7840    0.4850 C.ar    1  UNL1       -0.0294
     10 C          -0.2160   -2.4270    0.5450 C.ar    1  UNL1        0.1081
     11 N          -1.4850   -1.9880    0.6470 N.ar    1  UNL1       -0.2484
     12 C          -1.6300   -0.6440    0.6970 C.ar    1  UNL1        0.0684
     13 C          -0.5600    0.2390    0.6280 C.ar    1  UNL1        0.1436
     14 N          -0.6970    1.6270    0.6940 N.pl3   1  UNL1       -0.2981
     15 C          -1.6970    2.4950    0.2200 C.ar    1  UNL1        0.0330
     16 C          -1.7320    3.7990    0.7270 C.ar    1  UNL1       -0.0399
     17 C          -2.7170    4.7060    0.3260 C.ar    1  UNL1       -0.0523
     18 C          -3.7000    4.3270   -0.5980 C.ar    1  UNL1       -0.0178
     19 C          -4.6990    5.2230   -1.0150 C.ar    1  UNL1       -0.0540
     20 C          -5.6670    4.8300   -1.9400 C.ar    1  UNL1       -0.0612
     21 C          -5.6480    3.5390   -2.4590 C.ar    1  UNL1       -0.0612
     22 C          -4.6620    2.6380   -2.0540 C.ar    1  UNL1       -0.0540
     23 C          -3.6810    3.0160   -1.1220 C.ar    1  UNL1       -0.0161
     24 C          -2.6800    2.1190   -0.7030 C.ar    1  UNL1       -0.0328
     25 N           0.7040   -0.2290    0.5460 N.ar    1  UNL1       -0.2094
     26 C           0.8940   -1.5520    0.4980 C.ar    1  UNL1        0.1819
     27 N           2.1510   -1.9970    0.4010 N.ar    1  UNL1       -0.2108
     28 H           6.7850   -5.9430   -2.1190 H       1  UNL1        0.0245
     29 H           7.0960   -7.5280   -1.3840 H       1  UNL1        0.0245
     30 H           5.4310   -6.9630   -1.6160 H       1  UNL1        0.0245
     31 H           7.5110   -5.7120    0.2710 H       1  UNL1        0.0460
     32 H           6.1460   -6.7260    0.7810 H       1  UNL1        0.0460
     33 H           6.0210   -3.9920   -0.3650 H       1  UNL1        0.1502
     34 H           4.3270   -2.8480    0.2710 H       1  UNL1        0.1578
     35 H           1.5240   -5.3200    0.3350 H       1  UNL1        0.0653
     36 H          -0.7850   -4.4890    0.5180 H       1  UNL1        0.0641
     37 H          -2.6490   -0.2950    0.8230 H       1  UNL1        0.0865
     38 H           0.2290    2.0470    0.6880 H       1  UNL1        0.1536
     39 H          -0.9920    4.1200    1.4580 H       1  UNL1        0.0636
     40 H          -2.7120    5.7090    0.7460 H       1  UNL1        0.0624
     41 H          -4.7280    6.2360   -0.6210 H       1  UNL1        0.0624
     42 H          -6.4340    5.5320   -2.2540 H       1  UNL1        0.0618
     43 H          -6.4010    3.2320   -3.1810 H       1  UNL1        0.0618
     44 H          -4.6650    1.6340   -2.4730 H       1  UNL1        0.0624
     45 H          -2.6610    1.1260   -1.1430 H       1  UNL1        0.0642
@<TRIPOS>BOND
     1     1     2    1
     2     1    28    1
     3     1    29    1
     4     1    30    1
     5     2     3    1
     6     2    31    1
     7     2    32    1
     8     3     4   am
     9     3    33    1
    10     4     5    2
    11     4     6   am
    12     6     7    1
    13     6    34    1
    14     7     8   ar
    15     7    27   ar
    16     8     9   ar
    17     8    35    1
    18     9    10   ar
    19     9    36    1
    20    10    11   ar
    21    10    26   ar
    22    11    12   ar
    23    12    13   ar
    24    12    37    1
    25    13    14    1
    26    13    25   ar
    27    14    15    1
    28    14    38    1
    29    15    16   ar
    30    15    24   ar
    31    16    17   ar
    32    16    39    1
    33    17    18   ar
    34    17    40    1
    35    18    19   ar
    36    18    23   ar
    37    19    20   ar
    38    19    41    1
    39    20    21   ar
    40    20    42    1
    41    21    22   ar
    42    21    43    1
    43    22    23   ar
    44    22    44    1
    45    23    24   ar
    46    24    45    1
    47    25    26   ar
    48    26    27   ar
@<TRIPOS>MOLECULE
AD3CC01759286-I00-C00
 83 87 0 0 0
SMALL
GASTEIGER

@<TRIPOS>ATOM
      1 C          10.4360   -0.9580   -4.2640 C.3     1  UNL1        0.0371
      2 O           9.6110   -1.2120   -3.1310 O.3     1  UNL1       -0.3738
      3 C           9.0530   -0.0140   -2.5950 C.3     1  UNL1        0.1236
      4 C           7.7830    0.4600   -3.3140 C.2     1  UNL1        0.2440
      5 O           7.4460    1.6400   -3.2970 O.2     1  UNL1       -0.2729
      6 N           7.1060   -0.5800   -3.9070 N.am    1  UNL1       -0.2685
      7 C           5.9110   -0.5560   -4.6190 C.ar    1  UNL1        0.1252
      8 C           5.1540    0.5890   -4.8280 C.ar    1  UNL1       -0.0182
      9 C           3.9590    0.4970   -5.5530 C.ar    1  UNL1       -0.0395
     10 C           3.0930    1.7160   -5.7670 C.3     1  UNL1        0.0068
     11 C           2.1090    1.9370   -4.6140 C.3     1  UNL1        0.0936
     12 O           1.0550    0.9730   -4.7140 O.3     1  UNL1       -0.4910
     13 C           0.2850    0.7760   -3.5920 C.ar    1  UNL1        0.1283
     14 C           0.1530    1.7280   -2.5850 C.ar    1  UNL1       -0.0176
     15 C          -0.6330    1.4660   -1.4660 C.ar    1  UNL1       -0.0364
     16 C          -1.3090    0.2500   -1.3230 C.ar    1  UNL1        0.0427
     17 N          -2.0930   -0.0170   -0.1670 N.am    1  UNL1       -0.2686
     18 C          -2.1620    0.7120    1.0140 C.2     1  UNL1        0.3092
     19 O          -1.4820    1.6930    1.2840 O.2     1  UNL1       -0.2521
     20 N          -3.1050    0.1430    1.8650 N.am    1  UNL1       -0.2538
     21 C          -3.4020    0.6420    3.1310 C.ar    1  UNL1        0.1299
     22 C          -2.8900    1.7240    3.8130 C.ar    1  UNL1        0.0021
     23 C          -3.7150    1.8980    4.9490 C.ar    1  UNL1        0.0706
     24 C          -3.6460    3.0020    5.9920 C.3     1  UNL1        0.0063
     25 C          -2.1860    3.2490    6.4260 C.3     1  UNL1       -0.0546
     26 C          -4.4550    2.6490    7.2600 C.3     1  UNL1       -0.0546
     27 C          -4.2170    4.3060    5.4000 C.3     1  UNL1       -0.0546
     28 N          -4.6770    0.9700    4.9840 N.ar    1  UNL1       -0.1691
     29 N          -4.3860    0.1140    3.9710 N.ar    1  UNL1       -0.2181
     30 C          -5.0650   -1.1380    3.8940 C.ar    1  UNL1        0.0674
     31 C          -6.2970   -1.2870    4.5480 C.ar    1  UNL1       -0.0359
     32 C          -6.9850   -2.5010    4.4870 C.ar    1  UNL1       -0.0568
     33 C          -6.4500   -3.5870    3.7870 C.ar    1  UNL1       -0.0503
     34 C          -7.1740   -4.9010    3.7600 C.3     1  UNL1       -0.0397
     35 C          -5.1970   -3.4530    3.1780 C.ar    1  UNL1       -0.0568
     36 C          -4.5060   -2.2380    3.2310 C.ar    1  UNL1       -0.0359
     37 C          -1.2280   -0.7280   -2.3670 C.ar    1  UNL1        0.0069
     38 C          -1.9030   -1.9810   -2.3460 C.ar    1  UNL1       -0.0521
     39 C          -1.7950   -2.9110   -3.3830 C.ar    1  UNL1       -0.0611
     40 C          -1.0050   -2.6250   -4.4820 C.ar    1  UNL1       -0.0611
     41 C          -0.3290   -1.4100   -4.5400 C.ar    1  UNL1       -0.0505
     42 C          -0.4200   -0.4490   -3.5070 C.ar    1  UNL1        0.0256
     43 C           3.5690   -0.7510   -6.0370 C.ar    1  UNL1       -0.0402
     44 C           4.3850   -1.8380   -5.7820 C.ar    1  UNL1        0.0300
     45 N           5.5440   -1.7660   -5.0910 N.ar    1  UNL1       -0.2401
     46 H          10.7960   -1.9170   -4.6450 H       1  UNL1        0.0524
     47 H          11.3010   -0.3520   -3.9760 H       1  UNL1        0.0524
     48 H           9.8710   -0.4570   -5.0550 H       1  UNL1        0.0524
     49 H           9.7950    0.7920   -2.5950 H       1  UNL1        0.0656
     50 H           8.7730   -0.2200   -1.5570 H       1  UNL1        0.0656
     51 H           7.5260   -1.5020   -3.8500 H       1  UNL1        0.1563
     52 H           5.4630    1.5500   -4.4350 H       1  UNL1        0.0655
     53 H           3.7420    2.5950   -5.8680 H       1  UNL1        0.0346
     54 H           2.5510    1.6130   -6.7150 H       1  UNL1        0.0346
     55 H           2.6340    1.8580   -3.6530 H       1  UNL1        0.0700
     56 H           1.6730    2.9380   -4.7150 H       1  UNL1        0.0700
     57 H           0.6430    2.6950   -2.6430 H       1  UNL1        0.0655
     58 H          -0.7000    2.2500   -0.7190 H       1  UNL1        0.0637
     59 H          -2.5430   -0.9130   -0.1330 H       1  UNL1        0.1564
     60 H          -3.7560   -0.5180    1.4660 H       1  UNL1        0.1578
     61 H          -2.0820    2.3690    3.4970 H       1  UNL1        0.0671
     62 H          -1.7330    2.3340    6.8260 H       1  UNL1        0.0239
     63 H          -2.1290    4.0190    7.2040 H       1  UNL1        0.0239
     64 H          -1.5650    3.5860    5.5890 H       1  UNL1        0.0239
     65 H          -4.0950    1.7180    7.7140 H       1  UNL1        0.0239
     66 H          -4.3750    3.4390    8.0150 H       1  UNL1        0.0239
     67 H          -5.5210    2.5200    7.0360 H       1  UNL1        0.0239
     68 H          -3.6490    4.6270    4.5180 H       1  UNL1        0.0239
     69 H          -4.1860    5.1220    6.1300 H       1  UNL1        0.0239
     70 H          -5.2590    4.1760    5.0870 H       1  UNL1        0.0239
     71 H          -6.7400   -0.4590    5.0990 H       1  UNL1        0.0639
     72 H          -7.9420   -2.5930    4.9970 H       1  UNL1        0.0621
     73 H          -6.9240   -5.4840    4.6520 H       1  UNL1        0.0278
     74 H          -8.2580   -4.7460    3.7280 H       1  UNL1        0.0278
     75 H          -6.9020   -5.4810    2.8720 H       1  UNL1        0.0278
     76 H          -4.7400   -4.3040    2.6780 H       1  UNL1        0.0621
     77 H          -3.5050   -2.2060    2.8110 H       1  UNL1        0.0639
     78 H          -2.5410   -2.2690   -1.5180 H       1  UNL1        0.0624
     79 H          -2.3290   -3.8560   -3.3280 H       1  UNL1        0.0618
     80 H          -0.9130   -3.3400   -5.2950 H       1  UNL1        0.0618
     81 H           0.2820   -1.2070   -5.4170 H       1  UNL1        0.0625
     82 H           2.6450   -0.8780   -6.5900 H       1  UNL1        0.0635
     83 H           4.1190   -2.8300   -6.1350 H       1  UNL1        0.0830
@<TRIPOS>BOND
     1     1     2    1
     2     1    46    1
     3     1    47    1
     4     1    48    1
     5     2     3    1
     6     3     4    1
     7     3    49    1
     8     3    50    1
     9     4     5    2
    10     4     6   am
    11     6     7    1
    12     6    51    1
    13     7     8   ar
    14     7    45   ar
    15     8     9   ar
    16     8    52    1
    17     9    10    1
    18     9    43   ar
    19    10    11    1
    20    10    53    1
    21    10    54    1
    22    11    12    1
    23    11    55    1
    24    11    56    1
    25    12    13    1
    26    13    14   ar
    27    13    42   ar
    28    14    15   ar
    29    14    57    1
    30    15    16   ar
    31    15    58    1
    32    16    17    1
    33    16    37   ar
    34    17    18   am
    35    17    59    1
    36    18    19    2
    37    18    20   am
    38    20    21    1
    39    20    60    1
    40    21    22   ar
    41    21    29   ar
    42    22    23   ar
    43    22    61    1
    44    23    24    1
    45    23    28   ar
    46    24    25    1
    47    24    26    1
    48    24    27    1
    49    25    62    1
    50    25    63    1
    51    25    64    1
    52    26    65    1
    53    26    66    1
    54    26    67    1
    55    27    68    1
    56    27    69    1
    57    27    70    1
    58    28    29   ar
    59    29    30    1
    60    30    31   ar
    61    30    36   ar
    62    31    32   ar
    63    31    71    1
    64    32    33   ar
    65    32    72    1
    66    33    34    1
    67    33    35   ar
    68    34    73    1
    69    34    74    1
    70    34    75    1
    71    35    36   ar
    72    35    76    1
    73    36    77    1
    74    37    38   ar
    75    37    42   ar
    76    38    39   ar
    77    38    78    1
    78    39    40   ar
    79    39    79    1
    80    40    41   ar
    81    40    80    1
    82    41    42   ar
    83    41    81    1
    84    43    44   ar
    85    43    82    1
    86    44    45   ar
    87    44    83    1
@<TRIPOS>MOLECULE
AD3CC01785331-I00-C00
 65 67 0 0 0
SMALL
GASTEIGER

@<TRIPOS>ATOM
      1 C           1.8460   -2.3650    5.7330 C.3     1  UNL1       -0.0393
      2 C           2.4090   -2.7220    4.3620 C.3     1  UNL1        0.1031
      3 N           2.9000   -1.4860    3.7050 N.3     1  UNL1       -0.3040
      4 C           3.7280   -1.7850    2.5280 C.3     1  UNL1        0.0006
      5 C           4.1570   -0.5030    1.7930 C.3     1  UNL1       -0.0151
      6 C           3.0150    0.1780    1.0760 C.ar    1  UNL1       -0.0460
      7 C           2.6220   -0.2450   -0.1980 C.ar    1  UNL1       -0.0566
      8 C           1.5370    0.3570   -0.8430 C.ar    1  UNL1       -0.0374
      9 C           0.8130    1.3900   -0.2290 C.ar    1  UNL1        0.0512
     10 N          -0.3260    1.9920   -0.8870 N.ar    1  UNL1       -0.2646
     11 C          -0.3060    2.3180   -2.2700 C.ar    1  UNL1        0.1145
     12 N           0.8820    2.2370   -3.0000 N.pl3   1  UNL1       -0.3435
     13 C          -1.4500    2.7590   -2.8570 C.ar    1  UNL1        0.0607
     14 C          -1.4360    3.1130   -4.3140 C.2     1  UNL1        0.1991
     15 O          -0.5460    3.8170   -4.7880 O.2     1  UNL1       -0.2864
     16 C          -2.5350    2.6460   -5.1900 C.ar    1  UNL1        0.0577
     17 C          -2.9250    3.4630   -6.2620 C.ar    1  UNL1       -0.0454
     18 C          -3.9510    3.0520   -7.1160 C.ar    1  UNL1       -0.0256
     19 C          -4.5710    1.8240   -6.9030 C.ar    1  UNL1        0.1262
     20 F          -5.5550    1.4340   -7.7220 F       1  UNL1       -0.2054
     21 C          -4.1830    0.9960   -5.8570 C.ar    1  UNL1        0.0095
     22 C          -3.1620    1.4090   -5.0070 C.ar    1  UNL1        0.1369
     23 F          -2.7860    0.5810   -4.0230 F       1  UNL1       -0.2047
     24 C          -2.6550    2.9730   -2.0910 C.ar    1  UNL1       -0.0425
     25 C          -2.6820    2.7160   -0.7840 C.ar    1  UNL1        0.0041
     26 C          -1.4850    2.1750   -0.1000 C.ar    1  UNL1        0.2571
     27 O          -1.6190    1.9060    1.0940 O.2     1  UNL1       -0.2673
     28 C           1.2130    1.8050    1.0490 C.ar    1  UNL1       -0.0374
     29 C           2.3050    1.2130    1.6910 C.ar    1  UNL1       -0.0566
     30 C           1.3110   -3.4170    3.5430 C.2     1  UNL1        0.3245
     31 O           1.2150   -4.6330    3.4360 O.2     1  UNL1       -0.2491
     32 O           0.4670   -2.4980    2.9950 O.3     1  UNL1       -0.4578
     33 C          -0.6510   -2.9060    2.1660 C.3     1  UNL1        0.1052
     34 C          -1.3360   -1.5930    1.7610 C.3     1  UNL1       -0.0254
     35 C          -0.1650   -3.6180    0.9000 C.3     1  UNL1       -0.0254
     36 C          -1.6500   -3.7550    2.9580 C.3     1  UNL1       -0.0254
     37 H           1.4650   -3.2600    6.2390 H       1  UNL1        0.0250
     38 H           1.0150   -1.6550    5.6580 H       1  UNL1        0.0250
     39 H           2.6170   -1.9210    6.3710 H       1  UNL1        0.0250
     40 H           3.2410   -3.4260    4.4900 H       1  UNL1        0.0573
     41 H           2.0760   -0.9560    3.4010 H       1  UNL1        0.1227
     42 H           3.1980   -2.4460    1.8310 H       1  UNL1        0.0427
     43 H           4.6340   -2.3070    2.8590 H       1  UNL1        0.0427
     44 H           4.9320   -0.7550    1.0570 H       1  UNL1        0.0325
     45 H           4.6320    0.1970    2.4920 H       1  UNL1        0.0325
     46 H           3.1460   -1.0580   -0.6960 H       1  UNL1        0.0621
     47 H           1.2380   -0.0220   -1.8180 H       1  UNL1        0.0638
     48 H           1.6810    2.4690   -2.4120 H       1  UNL1        0.1437
     49 H           0.8710    2.8540   -3.8210 H       1  UNL1        0.1437
     50 H          -2.4310    4.4190   -6.4340 H       1  UNL1        0.0626
     51 H          -4.2670    3.6800   -7.9450 H       1  UNL1        0.0646
     52 H          -4.6650    0.0350   -5.7110 H       1  UNL1        0.0675
     53 H          -3.5350    3.3800   -2.5770 H       1  UNL1        0.0627
     54 H          -3.5620    2.8730   -0.1720 H       1  UNL1        0.0672
     55 H           0.6870    2.6070    1.5620 H       1  UNL1        0.0638
     56 H           2.5860    1.5580    2.6850 H       1  UNL1        0.0621
     57 H          -0.6420   -0.9480    1.2110 H       1  UNL1        0.0268
     58 H          -1.6490   -1.0270    2.6460 H       1  UNL1        0.0268
     59 H          -2.2160   -1.7680    1.1320 H       1  UNL1        0.0268
     60 H           0.2790   -4.5920    1.1240 H       1  UNL1        0.0268
     61 H           0.6100   -3.0290    0.3960 H       1  UNL1        0.0268
     62 H          -0.9870   -3.7840    0.1960 H       1  UNL1        0.0268
     63 H          -1.2390   -4.7350    3.2180 H       1  UNL1        0.0268
     64 H          -1.9150   -3.2650    3.9010 H       1  UNL1        0.0268
     65 H          -2.5680   -3.9280    2.3850 H       1  UNL1        0.0268
@<TRIPOS>BOND
     1     1     2    1
     2     1    37    1
     3     1    38    1
     4     1    39    1
     5     2     3    1
     6     2    30    1
     7     2    40    1
     8     3     4    1
     9     3    41    1
    10     4     5    1
    11     4    42    1
    12     4    43    1
    13     5     6    1
    14     5    44    1
    15     5    45    1
    16     6     7   ar
    17     6    29   ar
    18     7     8   ar
    19     7    46    1
    20     8     9   ar
    21     8    47    1
    22     9    10    1
    23     9    28   ar
    24    10    11   ar
    25    10    26   ar
    26    11    12    1
    27    11    13   ar
    28    12    48    1
    29    12    49    1
    30    13    14    1
    31    13    24   ar
    32    14    15    2
    33    14    16    1
    34    16    17   ar
    35    16    22   ar
    36    17    18   ar
    37    17    50    1
    38    18    19   ar
    39    18    51    1
    40    19    20    1
    41    19    21   ar
    42    21    22   ar
    43    21    52    1
    44    22    23    1
    45    24    25   ar
    46    24    53    1
    47    25    26   ar
    48    25    54    1
    49    26    27    2
    50    28    29   ar
    51    28    55    1
    52    29    56    1
    53    30    31    2
    54    30    32    1
    55    33    32    1
    56    33    34    1
    57    33    35    1
    58    33    36    1
    59    34    57    1
    60    34    58    1
    61    34    59    1
    62    35    60    1
    63    35    61    1
    64    35    62    1
    65    36    63    1
    66    36    64    1
    67    36    65    1
@<TRIPOS>MOLECULE
AD3CC01816715-I00-C00
 80 86 0 0 0
SMALL
GASTEIGER

@<TRIPOS>ATOM
      1 C          -7.9010   -3.6520   -0.4080 C.3     1  UNL1       -0.0397
      2 C          -6.4210   -3.4880   -0.5950 C.ar    1  UNL1       -0.0503
      3 C          -5.8700   -2.2330   -0.8790 C.ar    1  UNL1       -0.0568
      4 C          -4.4930   -2.0890   -1.0820 C.ar    1  UNL1       -0.0359
      5 C          -3.6480   -3.2040   -0.9990 C.ar    1  UNL1        0.0674
      6 N          -2.2410   -3.0930   -1.2000 N.ar    1  UNL1       -0.2181
      7 N          -1.5360   -4.1820   -1.6060 N.ar    1  UNL1       -0.1691
      8 C          -0.3340   -3.7130   -1.9620 C.ar    1  UNL1        0.0706
      9 C           0.7120   -4.6430   -2.5540 C.3     1  UNL1        0.0063
     10 C           1.7980   -3.8570   -3.3210 C.3     1  UNL1       -0.0546
     11 C           0.0720   -5.6360   -3.5470 C.3     1  UNL1       -0.0546
     12 C           1.3930   -5.4400   -1.4250 C.3     1  UNL1       -0.0546
     13 C          -0.2130   -2.3430   -1.6350 C.ar    1  UNL1        0.0021
     14 C          -1.4080   -1.9820   -1.0500 C.ar    1  UNL1        0.1299
     15 N          -1.7590   -0.8170   -0.3780 N.am    1  UNL1       -0.2538
     16 C          -1.0010    0.3460   -0.4180 C.2     1  UNL1        0.3092
     17 O          -0.0220    0.5220   -1.1330 O.2     1  UNL1       -0.2521
     18 N          -1.5190    1.2810    0.4680 N.am    1  UNL1       -0.2686
     19 C          -1.1650    2.6540    0.5530 C.ar    1  UNL1        0.0427
     20 C          -0.5930    3.2980   -0.5530 C.ar    1  UNL1       -0.0363
     21 C          -0.2670    4.6480   -0.5030 C.ar    1  UNL1       -0.0169
     22 C          -0.4960    5.3680    0.6660 C.ar    1  UNL1        0.1381
     23 O          -0.1650    6.7080    0.6740 O.3     1  UNL1       -0.4373
     24 C           1.1620    7.0080    0.9780 C.ar    1  UNL1        0.2249
     25 C           1.4560    8.3380    1.1430 C.ar    1  UNL1        0.0186
     26 C           2.7650    8.6050    1.4400 C.ar    1  UNL1        0.0362
     27 N           3.7080    7.6510    1.5610 N.ar    1  UNL1       -0.2225
     28 C           3.3280    6.3750    1.3680 C.ar    1  UNL1        0.2226
     29 N           4.3560    5.4400    1.4700 N.pl3   1  UNL1       -0.2818
     30 C           4.4370    4.0720    1.2230 C.ar    1  UNL1        0.0592
     31 C           3.3290    3.2570    0.9180 C.ar    1  UNL1       -0.0384
     32 C           3.4390    1.8890    0.6480 C.ar    1  UNL1       -0.0593
     33 C           4.6810    1.2560    0.6790 C.ar    1  UNL1       -0.0510
     34 C           5.8100    2.0260    0.9970 C.ar    1  UNL1        0.0213
     35 C           7.1930    1.7720    1.1370 C.ar    1  UNL1        0.0569
     36 N           7.8880    2.8630    1.4690 N.ar    1  UNL1       -0.1811
     37 N           6.9420    3.8170    1.5340 N.ar    1  UNL1       -0.2752
     38 C           5.6670    3.3860    1.2610 C.ar    1  UNL1        0.0869
     39 N           2.0720    6.0240    1.0820 N.ar    1  UNL1       -0.1789
     40 C          -1.1060    4.7760    1.7920 C.ar    1  UNL1        0.0262
     41 C          -1.3760    5.5260    2.9600 C.ar    1  UNL1       -0.0505
     42 C          -1.9640    4.9470    4.0810 C.ar    1  UNL1       -0.0611
     43 C          -2.2960    3.6040    4.0560 C.ar    1  UNL1       -0.0611
     44 C          -2.0420    2.8410    2.9120 C.ar    1  UNL1       -0.0521
     45 C          -1.4480    3.3960    1.7470 C.ar    1  UNL1        0.0069
     46 C          -4.2070   -4.4700   -0.7660 C.ar    1  UNL1       -0.0359
     47 C          -5.5820   -4.6070   -0.5600 C.ar    1  UNL1       -0.0568
     48 H          -8.3600   -3.9960   -1.3390 H       1  UNL1        0.0278
     49 H          -8.3700   -2.7060   -0.1150 H       1  UNL1        0.0278
     50 H          -8.1100   -4.3790    0.3850 H       1  UNL1        0.0278
     51 H          -6.5140   -1.3590   -0.9690 H       1  UNL1        0.0621
     52 H          -4.1240   -1.1110   -1.3790 H       1  UNL1        0.0639
     53 H           2.3570   -3.1860   -2.6590 H       1  UNL1        0.0239
     54 H           2.5250   -4.5340   -3.7840 H       1  UNL1        0.0239
     55 H           1.3590   -3.2460   -4.1180 H       1  UNL1        0.0239
     56 H          -0.6630   -6.2850   -3.0570 H       1  UNL1        0.0239
     57 H          -0.4460   -5.1070   -4.3560 H       1  UNL1        0.0239
     58 H           0.8300   -6.2840   -4.0050 H       1  UNL1        0.0239
     59 H           2.1610   -6.1140   -1.8220 H       1  UNL1        0.0239
     60 H           0.6680   -6.0480   -0.8710 H       1  UNL1        0.0239
     61 H           1.8770   -4.7700   -0.7040 H       1  UNL1        0.0239
     62 H           0.6680   -1.7230   -1.7370 H       1  UNL1        0.0671
     63 H          -2.6440   -0.7850    0.1060 H       1  UNL1        0.1578
     64 H          -1.9900    0.8820    1.2610 H       1  UNL1        0.1564
     65 H          -0.4070    2.7710   -1.4840 H       1  UNL1        0.0637
     66 H           0.1810    5.1300   -1.3670 H       1  UNL1        0.0655
     67 H           0.7110    9.1130    1.0460 H       1  UNL1        0.0686
     68 H           3.1130    9.6230    1.5910 H       1  UNL1        0.0832
     69 H           5.2080    5.9400    1.6620 H       1  UNL1        0.1551
     70 H           2.3280    3.6810    0.8880 H       1  UNL1        0.0637
     71 H           2.5410    1.3160    0.4130 H       1  UNL1        0.0618
     72 H           4.7640    0.1940    0.4690 H       1  UNL1        0.0625
     73 H           7.7170    0.8340    1.0100 H       1  UNL1        0.0854
     74 H           7.2360    4.7540    1.7810 H       1  UNL1        0.1890
     75 H          -1.1190    6.5820    3.0060 H       1  UNL1        0.0625
     76 H          -2.1530    5.5450    4.9690 H       1  UNL1        0.0618
     77 H          -2.7500    3.1410    4.9280 H       1  UNL1        0.0618
     78 H          -2.3150    1.7920    2.9650 H       1  UNL1        0.0624
     79 H          -3.5790   -5.3600   -0.7300 H       1  UNL1        0.0639
     80 H          -5.9930   -5.5980   -0.3740 H       1  UNL1        0.0621
@<TRIPOS>BOND
     1     1     2    1
     2     1    48    1
     3     1    49    1
     4     1    50    1
     5     2     3   ar
     6     2    47   ar
     7     3     4   ar
     8     3    51    1
     9     4     5   ar
    10     4    52    1
    11     5     6    1
    12     5    46   ar
    13     6     7   ar
    14     6    14   ar
    15     7     8   ar
    16     8     9    1
    17     8    13   ar
    18     9    10    1
    19     9    11    1
    20     9    12    1
    21    10    53    1
    22    10    54    1
    23    10    55    1
    24    11    56    1
    25    11    57    1
    26    11    58    1
    27    12    59    1
    28    12    60    1
    29    12    61    1
    30    13    14   ar
    31    13    62    1
    32    14    15    1
    33    15    16   am
    34    15    63    1
    35    16    17    2
    36    16    18   am
    37    18    19    1
    38    18    64    1
    39    19    20   ar
    40    19    45   ar
    41    20    21   ar
    42    20    65    1
    43    21    22   ar
    44    21    66    1
    45    22    23    1
    46    22    40   ar
    47    23    24    1
    48    24    25   ar
    49    24    39   ar
    50    25    26   ar
    51    25    67    1
    52    26    27   ar
    53    26    68    1
    54    27    28   ar
    55    28    29    1
    56    28    39   ar
    57    29    30    1
    58    29    69    1
    59    30    31   ar
    60    30    38   ar
    61    31    32   ar
    62    31    70    1
    63    32    33   ar
    64    32    71    1
    65    33    34   ar
    66    33    72    1
    67    34    35   ar
    68    34    38   ar
    69    35    36   ar
    70    35    73    1
    71    36    37   ar
    72    37    38   ar
    73    37    74    1
    74    40    41   ar
    75    40    45   ar
    76    41    42   ar
    77    41    75    1
    78    42    43   ar
    79    42    76    1
    80    43    44   ar
    81    43    77    1
    82    44    45   ar
    83    44    78    1
    84    46    47   ar
    85    46    79    1
    86    47    80    1
@<TRIPOS>MOLECULE
AD3CC01820429-I00-C00
 98 105 0 0 0
SMALL
GASTEIGER

@<TRIPOS>ATOM
      1 C           6.7310   -4.1750    0.2050 C.3     1  UNL1       -0.0546
      2 C           6.0690   -3.4120   -0.9620 C.3     1  UNL1        0.0063
      3 C           6.9960   -2.2490   -1.3680 C.3     1  UNL1       -0.0546
      4 C           5.9470   -4.3920   -2.1480 C.3     1  UNL1       -0.0546
      5 C           4.7010   -2.8670   -0.5830 C.ar    1  UNL1        0.0706
      6 C           3.7210   -2.3240   -1.4440 C.ar    1  UNL1        0.0021
      7 C           2.6920   -1.8960   -0.6330 C.ar    1  UNL1        0.1300
      8 N           1.5610   -1.1420   -0.9380 N.am    1  UNL1       -0.2538
      9 C           1.3410   -0.5710   -2.1890 C.2     1  UNL1        0.3092
     10 O           2.1120   -0.6160   -3.1380 O.2     1  UNL1       -0.2521
     11 N           0.1000    0.0490   -2.2090 N.am    1  UNL1       -0.2686
     12 C          -0.4190    0.9530   -3.1730 C.ar    1  UNL1        0.0427
     13 C           0.4390    1.5880   -4.0810 C.ar    1  UNL1       -0.0363
     14 C          -0.0310    2.5980   -4.9140 C.ar    1  UNL1       -0.0169
     15 C          -1.3660    2.9870   -4.8460 C.ar    1  UNL1        0.1381
     16 O          -1.7540    4.0300   -5.6680 O.3     1  UNL1       -0.4373
     17 C          -1.8140    5.2880   -5.0660 C.ar    1  UNL1        0.2249
     18 C          -2.2110    6.3330   -5.8590 C.ar    1  UNL1        0.0186
     19 C          -2.3080    7.5400   -5.2140 C.ar    1  UNL1        0.0362
     20 N          -2.0560    7.7110   -3.9000 N.ar    1  UNL1       -0.2225
     21 C          -1.6650    6.6310   -3.2060 C.ar    1  UNL1        0.2226
     22 N          -1.4750    6.8080   -1.8340 N.pl3   1  UNL1       -0.2835
     23 C          -1.2260    5.8380   -0.8490 C.ar    1  UNL1        0.0353
     24 C          -1.8440    5.9540    0.4200 C.ar    1  UNL1       -0.0401
     25 C          -1.7450    4.9400    1.3880 C.ar    1  UNL1       -0.0546
     26 C          -1.0190    3.8100    1.0700 C.ar    1  UNL1       -0.0173
     27 C          -0.3770    3.7200   -0.1580 C.ar    1  UNL1        0.0388
     28 C          -0.4540    4.7010   -1.1190 C.ar    1  UNL1       -0.0189
     29 N           0.2650    2.5000   -0.2690 N.am    1  UNL1       -0.2849
     30 C          -0.0020    1.6960    0.8240 C.2     1  UNL1        0.2216
     31 O           0.3210    0.5200    0.9170 O.2     1  UNL1       -0.2751
     32 C          -0.7990    2.5370    1.8340 C.3     1  UNL1        0.0512
     33 N          -1.5260    5.4210   -3.7610 N.ar    1  UNL1       -0.1789
     34 C          -2.2840    2.3250   -4.0010 C.ar    1  UNL1        0.0262
     35 C          -3.6550    2.6670   -3.9830 C.ar    1  UNL1       -0.0505
     36 C          -4.5580    2.0300   -3.1360 C.ar    1  UNL1       -0.0611
     37 C          -4.1120    1.0290   -2.2910 C.ar    1  UNL1       -0.0611
     38 C          -2.7630    0.6670   -2.2950 C.ar    1  UNL1       -0.0521
     39 C          -1.8090    1.2970   -3.1390 C.ar    1  UNL1        0.0069
     40 N           3.0200   -2.3560    0.6470 N.ar    1  UNL1       -0.2166
     41 C           2.2250   -2.4440    1.8210 C.ar    1  UNL1        0.0857
     42 C           2.8310   -2.5820    3.0740 C.ar    1  UNL1       -0.0297
     43 C           2.0370   -2.6630    4.2170 C.ar    1  UNL1        0.0020
     44 C           0.6620   -2.6160    4.0680 C.ar    1  UNL1        0.2148
     45 O          -0.0830   -2.6900    5.2270 O.3     1  UNL1       -0.4751
     46 C          -1.4810   -2.4370    5.0460 C.3     1  UNL1        0.1039
     47 C          -2.2510   -3.7020    4.6160 C.3     1  UNL1        0.0333
     48 N          -2.7360   -4.5350    5.7400 N.3     1  UNL1       -0.2948
     49 C          -3.5600   -5.6630    5.2440 C.3     1  UNL1        0.0225
     50 C          -2.7490   -6.8000    4.5940 C.3     1  UNL1        0.0604
     51 O          -1.7280   -7.2900    5.4720 O.3     1  UNL1       -0.3772
     52 C          -0.8570   -6.2260    5.8800 C.3     1  UNL1        0.0604
     53 C          -1.6460   -5.1000    6.5680 C.3     1  UNL1        0.0225
     54 N           0.0420   -2.5370    2.8720 N.ar    1  UNL1       -0.2192
     55 C           0.8390   -2.4590    1.7750 C.ar    1  UNL1        0.0568
     56 N           4.3050   -2.8010    0.6920 N.ar    1  UNL1       -0.1690
     57 H           6.9000   -3.5220    1.0700 H       1  UNL1        0.0239
     58 H           6.1060   -5.0110    0.5400 H       1  UNL1        0.0239
     59 H           7.7040   -4.5860   -0.0890 H       1  UNL1        0.0239
     60 H           7.9930   -2.6120   -1.6420 H       1  UNL1        0.0239
     61 H           6.5960   -1.6980   -2.2270 H       1  UNL1        0.0239
     62 H           7.1140   -1.5310   -0.5480 H       1  UNL1        0.0239
     63 H           6.9210   -4.8210   -2.4110 H       1  UNL1        0.0239
     64 H           5.5560   -3.8990   -3.0460 H       1  UNL1        0.0239
     65 H           5.2710   -5.2210   -1.9080 H       1  UNL1        0.0239
     66 H           3.8030   -2.1940   -2.5150 H       1  UNL1        0.0671
     67 H           1.0680   -0.7010   -0.1590 H       1  UNL1        0.1578
     68 H          -0.5200   -0.2530   -1.4740 H       1  UNL1        0.1564
     69 H           1.4970    1.3490   -4.1310 H       1  UNL1        0.0637
     70 H           0.6530    3.1020   -5.5900 H       1  UNL1        0.0655
     71 H          -2.4390    6.2130   -6.9080 H       1  UNL1        0.0686
     72 H          -2.6130    8.4370   -5.7470 H       1  UNL1        0.0832
     73 H          -1.8690    7.6900   -1.5440 H       1  UNL1        0.1550
     74 H          -2.4530    6.8270    0.6440 H       1  UNL1        0.0636
     75 H          -2.2570    5.0360    2.3400 H       1  UNL1        0.0622
     76 H           0.0510    4.5740   -2.0690 H       1  UNL1        0.0655
     77 H           0.7440    2.1830   -1.1010 H       1  UNL1        0.1548
     78 H          -0.1990    2.7040    2.7320 H       1  UNL1        0.0408
     79 H          -1.7470    2.0400    2.0550 H       1  UNL1        0.0408
     80 H          -4.0340    3.4480   -4.6380 H       1  UNL1        0.0625
     81 H          -5.6060    2.3180   -3.1390 H       1  UNL1        0.0618
     82 H          -4.8110    0.5210   -1.6300 H       1  UNL1        0.0618
     83 H          -2.4820   -0.1460   -1.6320 H       1  UNL1        0.0624
     84 H           3.9140   -2.6090    3.1760 H       1  UNL1        0.0641
     85 H           2.4840   -2.7520    5.2010 H       1  UNL1        0.0671
     86 H          -1.6500   -1.6130    4.3400 H       1  UNL1        0.0710
     87 H          -1.8700   -2.0740    6.0050 H       1  UNL1        0.0710
     88 H          -3.1380   -3.3530    4.0710 H       1  UNL1        0.0460
     89 H          -1.6550   -4.2950    3.9160 H       1  UNL1        0.0460
     90 H          -4.3290   -5.3040    4.5510 H       1  UNL1        0.0449
     91 H          -4.0990   -6.0740    6.1080 H       1  UNL1        0.0449
     92 H          -2.2900   -6.4820    3.6510 H       1  UNL1        0.0572
     93 H          -3.4140   -7.6390    4.3660 H       1  UNL1        0.0572
     94 H          -0.1330   -6.6490    6.5830 H       1  UNL1        0.0572
     95 H          -0.2980   -5.8610    5.0110 H       1  UNL1        0.0572
     96 H          -2.1140   -5.5160    7.4710 H       1  UNL1        0.0449
     97 H          -0.9680   -4.3200    6.9290 H       1  UNL1        0.0449
     98 H           0.2840   -2.4510    0.8440 H       1  UNL1        0.0852
@<TRIPOS>BOND
     1     2     1    1
     2     1    57    1
     3     1    58    1
     4     1    59    1
     5     2     3    1
     6     2     4    1
     7     2     5    1
     8     3    60    1
     9     3    61    1
    10     3    62    1
    11     4    63    1
    12     4    64    1
    13     4    65    1
    14     5     6   ar
    15     5    56   ar
    16     6     7   ar
    17     6    66    1
    18     7     8    1
    19     7    40   ar
    20     8     9   am
    21     8    67    1
    22     9    10    2
    23     9    11   am
    24    11    12    1
    25    11    68    1
    26    12    13   ar
    27    12    39   ar
    28    13    14   ar
    29    13    69    1
    30    14    15   ar
    31    14    70    1
    32    15    16    1
    33    15    34   ar
    34    16    17    1
    35    17    18   ar
    36    17    33   ar
    37    18    19   ar
    38    18    71    1
    39    19    20   ar
    40    19    72    1
    41    20    21   ar
    42    21    22    1
    43    21    33   ar
    44    22    23    1
    45    22    73    1
    46    23    24   ar
    47    23    28   ar
    48    24    25   ar
    49    24    74    1
    50    25    26   ar
    51    25    75    1
    52    26    27   ar
    53    26    32    1
    54    27    28   ar
    55    27    29    1
    56    28    76    1
    57    29    30   am
    58    29    77    1
    59    30    31    2
    60    30    32    1
    61    32    78    1
    62    32    79    1
    63    34    35   ar
    64    34    39   ar
    65    35    36   ar
    66    35    80    1
    67    36    37   ar
    68    36    81    1
    69    37    38   ar
    70    37    82    1
    71    38    39   ar
    72    38    83    1
    73    40    41    1
    74    40    56   ar
    75    41    42   ar
    76    41    55   ar
    77    42    43   ar
    78    42    84    1
    79    43    44   ar
    80    43    85    1
    81    44    45    1
    82    44    54   ar
    83    45    46    1
    84    46    47    1
    85    46    86    1
    86    46    87    1
    87    47    48    1
    88    47    88    1
    89    47    89    1
    90    48    49    1
    91    48    53    1
    92    49    50    1
    93    49    90    1
    94    49    91    1
    95    50    51    1
    96    50    92    1
    97    50    93    1
    98    51    52    1
    99    52    53    1
   100    52    94    1
   101    52    95    1
   102    53    96    1
   103    53    97    1
   104    54    55   ar
   105    55    98    1
@<TRIPOS>MOLECULE
AD3CC01823329-I00-C00
 58 62 0 0 0
SMALL
GASTEIGER

@<TRIPOS>ATOM
      1 C          -5.2730   -7.4440   -3.0950 C.3     1  UNL1        0.0004
      2 N          -4.9450   -6.1030   -2.6780 N.am    1  UNL1       -0.3144
      3 C          -5.5000   -5.5700   -1.5330 C.2     1  UNL1        0.2439
      4 O          -6.2340   -6.1990   -0.7790 O.2     1  UNL1       -0.2702
      5 C          -5.1980   -4.1390   -1.2540 C.ar    1  UNL1        0.0374
      6 C          -6.1110   -3.3990   -0.4970 C.ar    1  UNL1       -0.0493
      7 C          -5.8710   -2.0510   -0.2270 C.ar    1  UNL1       -0.0572
      8 C          -4.7050   -1.4230   -0.6960 C.ar    1  UNL1       -0.0362
      9 C          -3.7760   -2.1730   -1.4220 C.ar    1  UNL1        0.0262
     10 C          -4.0270   -3.5260   -1.7070 C.ar    1  UNL1       -0.0385
     11 C          -2.5390   -1.5940   -1.9840 C.2     1  UNL1        0.1937
     12 O          -2.2440   -1.9350   -3.1310 O.2     1  UNL1       -0.2866
     13 C          -1.6090   -0.7080   -1.2220 C.ar    1  UNL1        0.0256
     14 C          -0.2830   -0.6960   -1.6980 C.ar    1  UNL1       -0.0489
     15 C           0.7220    0.0400   -1.0640 C.ar    1  UNL1       -0.0399
     16 C           0.4380    0.7980    0.0660 C.ar    1  UNL1        0.0317
     17 N           1.4060    1.5190    0.7850 N.pl3   1  UNL1       -0.3122
     18 C           2.8150    1.4400    0.8100 C.ar    1  UNL1        0.0678
     19 C           3.5090    0.2460    0.5910 C.ar    1  UNL1       -0.0377
     20 C           4.9050    0.2170    0.6090 C.ar    1  UNL1       -0.0591
     21 C           5.6270    1.3870    0.8490 C.ar    1  UNL1       -0.0467
     22 C           4.9600    2.5980    1.0800 C.ar    1  UNL1        0.0736
     23 C           5.7790    3.8150    1.3370 C.2     1  UNL1        0.2471
     24 O           7.0040    3.7250    1.3710 O.2     1  UNL1       -0.2701
     25 N           5.1080    5.0080    1.5280 N.am    1  UNL1       -0.3084
     26 C           5.7910    6.2390    1.7670 C.3     1  UNL1        0.0235
     27 C           5.0440    7.5450    1.7580 C.3     1  UNL1       -0.0328
     28 C           6.0000    7.2210    0.6480 C.3     1  UNL1       -0.0328
     29 C           3.5620    2.6060    1.0610 C.ar    1  UNL1        0.1565
     30 F           2.8830    3.7480    1.2830 F       1  UNL1       -0.2028
     31 C          -0.8830    0.7920    0.5360 C.ar    1  UNL1       -0.0367
     32 C          -1.9260    0.0700   -0.0980 C.ar    1  UNL1       -0.0345
     33 C          -3.2920    0.2050    0.5300 C.3     1  UNL1       -0.0229
     34 C          -4.4740    0.0320   -0.4130 C.3     1  UNL1       -0.0230
     35 H          -4.5350   -7.7690   -3.8320 H       1  UNL1        0.0426
     36 H          -5.2680   -8.1200   -2.2370 H       1  UNL1        0.0426
     37 H          -6.2690   -7.4360   -3.5470 H       1  UNL1        0.0426
     38 H          -4.5670   -5.4760   -3.3760 H       1  UNL1        0.1487
     39 H          -7.0190   -3.8710   -0.1250 H       1  UNL1        0.0625
     40 H          -6.6060   -1.4940    0.3510 H       1  UNL1        0.0621
     41 H          -3.2860   -4.0910   -2.2690 H       1  UNL1        0.0632
     42 H          -0.0140   -1.2780   -2.5800 H       1  UNL1        0.0625
     43 H           1.7190    0.0250   -1.4930 H       1  UNL1        0.0636
     44 H           1.0530    2.3940    1.1650 H       1  UNL1        0.1522
     45 H           2.9700   -0.6850    0.4350 H       1  UNL1        0.0637
     46 H           5.4320   -0.7200    0.4430 H       1  UNL1        0.0618
     47 H           6.7150    1.3490    0.8610 H       1  UNL1        0.0626
     48 H           4.0940    5.0200    1.4970 H       1  UNL1        0.1493
     49 H           6.5970    6.1460    2.4920 H       1  UNL1        0.0498
     50 H           5.3400    8.2990    2.4780 H       1  UNL1        0.0284
     51 H           3.9850    7.5420    1.5290 H       1  UNL1        0.0284
     52 H           6.9470    7.7460    0.6150 H       1  UNL1        0.0284
     53 H           5.5930    6.9820   -0.3270 H       1  UNL1        0.0284
     54 H          -1.1130    1.3660    1.4340 H       1  UNL1        0.0639
     55 H          -3.3750    1.2180    0.9480 H       1  UNL1        0.0317
     56 H          -3.3580   -0.4930    1.3750 H       1  UNL1        0.0317
     57 H          -5.3670    0.4590    0.0620 H       1  UNL1        0.0317
     58 H          -4.3360    0.5840   -1.3510 H       1  UNL1        0.0317
@<TRIPOS>BOND
     1     1     2    1
     2     1    35    1
     3     1    36    1
     4     1    37    1
     5     2     3   am
     6     2    38    1
     7     3     4    2
     8     3     5    1
     9     5     6   ar
    10     5    10   ar
    11     6     7   ar
    12     6    39    1
    13     7     8   ar
    14     7    40    1
    15     8     9   ar
    16     8    34    1
    17     9    10   ar
    18     9    11    1
    19    10    41    1
    20    11    12    2
    21    11    13    1
    22    13    14   ar
    23    13    32   ar
    24    14    15   ar
    25    14    42    1
    26    15    16   ar
    27    15    43    1
    28    16    17    1
    29    16    31   ar
    30    17    18    1
    31    17    44    1
    32    18    19   ar
    33    18    29   ar
    34    19    20   ar
    35    19    45    1
    36    20    21   ar
    37    20    46    1
    38    21    22   ar
    39    21    47    1
    40    22    23    1
    41    22    29   ar
    42    23    24    2
    43    23    25   am
    44    25    26    1
    45    25    48    1
    46    26    27    1
    47    26    28    1
    48    26    49    1
    49    27    28    1
    50    27    50    1
    51    27    51    1
    52    28    52    1
    53    28    53    1
    54    29    30    1
    55    31    32   ar
    56    31    54    1
    57    32    33    1
    58    33    34    1
    59    33    55    1
    60    33    56    1
    61    34    57    1
    62    34    58    1
@<TRIPOS>MOLECULE
AD3CC01825406-I00-C00
 49 53 0 0 0
SMALL
GASTEIGER

@<TRIPOS>ATOM
      1 O          -0.6950    3.5450   -1.7270 O.3     1  UNL1       -0.3946
      2 C          -0.2370    4.5270   -0.7930 C.3     1  UNL1        0.0510
      3 C          -1.1770    4.5900    0.4080 C.3     1  UNL1        0.0286
      4 C          -1.0780    3.3670    1.2540 C.ar    1  UNL1        0.1104
      5 N          -0.7280    3.2970    2.5190 N.ar    1  UNL1       -0.2318
      6 C          -0.7700    1.9570    2.8460 C.ar    1  UNL1        0.0968
      7 C          -0.4210    1.4870    4.1770 C.ar    1  UNL1        0.0026
      8 C          -0.7950    2.2530    5.2920 C.ar    1  UNL1       -0.0498
      9 C          -0.4730    1.8320    6.5840 C.ar    1  UNL1       -0.0258
     10 C           0.2320    0.6480    6.7600 C.ar    1  UNL1        0.1234
     11 F           0.5420    0.2410    7.9980 F       1  UNL1       -0.2055
     12 C           0.6270   -0.1190    5.6700 C.ar    1  UNL1       -0.0258
     13 C           0.3050    0.3030    4.3770 C.ar    1  UNL1       -0.0498
     14 C          -1.1880    1.1950    1.7630 C.ar    1  UNL1        0.0748
     15 C          -1.4820   -0.2170    1.5780 C.ar    1  UNL1        0.0125
     16 C          -2.3290   -0.9200    2.4390 C.ar    1  UNL1       -0.0337
     17 C          -2.5690   -2.2640    2.1910 C.ar    1  UNL1        0.0305
     18 N          -2.0510   -2.9830    1.1700 N.ar    1  UNL1       -0.2374
     19 C          -1.2410   -2.2610    0.3760 C.ar    1  UNL1        0.1392
     20 N          -0.5950   -2.7610   -0.7180 N.ar    1  UNL1       -0.3391
     21 C           0.1730   -1.7870   -1.3200 C.ar    1  UNL1        0.0486
     22 C           0.9770   -2.0290   -2.5180 C.ar    1  UNL1       -0.0016
     23 C           1.1300   -1.0220   -3.4810 C.ar    1  UNL1       -0.0526
     24 C           1.8920   -1.2440   -4.6320 C.ar    1  UNL1       -0.0611
     25 C           2.5140   -2.4740   -4.8300 C.ar    1  UNL1       -0.0617
     26 C           2.3760   -3.4820   -3.8780 C.ar    1  UNL1       -0.0611
     27 C           1.6120   -3.2610   -2.7290 C.ar    1  UNL1       -0.0526
     28 C          -0.0130   -0.6320   -0.5730 C.ar    1  UNL1       -0.0265
     29 C          -0.9090   -0.9170    0.4980 C.ar    1  UNL1        0.0284
     30 N          -1.3690    2.1210    0.7620 N.ar    1  UNL1       -0.3413
     31 H          -0.1020    3.6050   -2.4990 H       1  UNL1        0.2094
     32 H          -0.2260    5.4950   -1.3050 H       1  UNL1        0.0561
     33 H           0.7850    4.2730   -0.4930 H       1  UNL1        0.0561
     34 H          -2.2140    4.7040    0.0710 H       1  UNL1        0.0365
     35 H          -0.9250    5.4650    1.0180 H       1  UNL1        0.0365
     36 H          -1.3390    3.1860    5.1510 H       1  UNL1        0.0625
     37 H          -0.7630    2.4210    7.4470 H       1  UNL1        0.0646
     38 H           1.1880   -1.0340    5.8290 H       1  UNL1        0.0646
     39 H           0.6410   -0.2920    3.5310 H       1  UNL1        0.0625
     40 H          -2.8000   -0.4320    3.2850 H       1  UNL1        0.0639
     41 H          -3.2260   -2.8270    2.8500 H       1  UNL1        0.0830
     42 H          -0.6950   -3.7140   -1.0310 H       1  UNL1        0.1673
     43 H           0.6450   -0.0580   -3.3520 H       1  UNL1        0.0624
     44 H           1.9980   -0.4560   -5.3730 H       1  UNL1        0.0618
     45 H           3.1090   -2.6460   -5.7230 H       1  UNL1        0.0618
     46 H           2.8680   -4.4400   -4.0270 H       1  UNL1        0.0618
     47 H           1.5400   -4.0580   -1.9930 H       1  UNL1        0.0624
     48 H           0.4640    0.3200   -0.7700 H       1  UNL1        0.0645
     49 H          -1.6550    1.9310   -0.1910 H       1  UNL1        0.1671
@<TRIPOS>BOND
     1     1     2    1
     2     1    31    1
     3     2     3    1
     4     2    32    1
     5     2    33    1
     6     3     4    1
     7     3    34    1
     8     3    35    1
     9     4     5   ar
    10     4    30   ar
    11     5     6   ar
    12     6     7    1
    13     6    14   ar
    14     7     8   ar
    15     7    13   ar
    16     8     9   ar
    17     8    36    1
    18     9    10   ar
    19     9    37    1
    20    10    11    1
    21    10    12   ar
    22    12    13   ar
    23    12    38    1
    24    13    39    1
    25    14    15    1
    26    14    30   ar
    27    15    16   ar
    28    15    29   ar
    29    16    17   ar
    30    16    40    1
    31    17    18   ar
    32    17    41    1
    33    18    19   ar
    34    19    20   ar
    35    19    29   ar
    36    20    21   ar
    37    20    42    1
    38    21    22    1
    39    21    28   ar
    40    22    23   ar
    41    22    27   ar
    42    23    24   ar
    43    23    43    1
    44    24    25   ar
    45    24    44    1
    46    25    26   ar
    47    25    45    1
    48    26    27   ar
    49    26    46    1
    50    27    47    1
    51    28    29   ar
    52    28    48    1
    53    30    49    1
@<TRIPOS>MOLECULE
AD3CC01833976-I00-C00
 53 58 0 0 0
SMALL
GASTEIGER

@<TRIPOS>ATOM
      1 O          -3.1710   -0.7110    6.9230 O.3     1  UNL1       -0.5068
      2 C          -2.5620   -0.3510    5.7580 C.ar    1  UNL1        0.1169
      3 C          -2.9130    0.8120    5.0860 C.ar    1  UNL1       -0.0195
      4 C          -2.2570    1.1360    3.8940 C.ar    1  UNL1       -0.0477
      5 C          -1.2540    0.3070    3.3650 C.ar    1  UNL1        0.0175
      6 C          -0.6010    0.6930    2.1090 C.ar    1  UNL1        0.1393
      7 N          -0.7800    1.8300    1.4620 N.ar    1  UNL1       -0.2271
      8 C           0.0070    1.7720    0.3320 C.ar    1  UNL1        0.0972
      9 C           0.0580    2.8650   -0.6250 C.ar    1  UNL1        0.0025
     10 C           0.1360    2.6400   -2.0060 C.ar    1  UNL1       -0.0525
     11 C           0.1850    3.7140   -2.8980 C.ar    1  UNL1       -0.0611
     12 C           0.1460    5.0230   -2.4200 C.ar    1  UNL1       -0.0617
     13 C           0.0520    5.2590   -1.0500 C.ar    1  UNL1       -0.0611
     14 C           0.0030    4.1860   -0.1580 C.ar    1  UNL1       -0.0525
     15 C           0.7100    0.5790    0.2870 C.ar    1  UNL1        0.0750
     16 C           1.7260    0.0390   -0.6000 C.ar    1  UNL1        0.0125
     17 C           2.8900    0.7440   -0.9150 C.ar    1  UNL1       -0.0337
     18 C           3.8230    0.1530   -1.7540 C.ar    1  UNL1        0.0305
     19 N           3.7180   -1.0750   -2.3100 N.ar    1  UNL1       -0.2374
     20 C           2.5750   -1.7050   -1.9840 C.ar    1  UNL1        0.1392
     21 N           2.2310   -2.9500   -2.4270 N.ar    1  UNL1       -0.3391
     22 C           0.9930   -3.3170   -1.9420 C.ar    1  UNL1        0.0486
     23 C           0.3580   -4.5990   -2.2560 C.ar    1  UNL1       -0.0016
     24 C          -0.4790   -5.2220   -1.3190 C.ar    1  UNL1       -0.0526
     25 C          -1.0890   -6.4460   -1.6070 C.ar    1  UNL1       -0.0611
     26 C          -0.8720   -7.0620   -2.8370 C.ar    1  UNL1       -0.0617
     27 C          -0.0480   -6.4520   -3.7800 C.ar    1  UNL1       -0.0611
     28 C           0.5620   -5.2280   -3.4920 C.ar    1  UNL1       -0.0526
     29 C           0.5600   -2.2620   -1.1510 C.ar    1  UNL1       -0.0265
     30 C           1.5540   -1.2400   -1.1640 C.ar    1  UNL1        0.0284
     31 N           0.2960   -0.0870    1.4200 N.ar    1  UNL1       -0.3374
     32 C          -0.9180   -0.8610    4.0670 C.ar    1  UNL1       -0.0477
     33 C          -1.5720   -1.1880    5.2600 C.ar    1  UNL1       -0.0195
     34 H          -3.8320   -0.0340    7.1480 H       1  UNL1        0.2921
     35 H          -3.6830    1.4760    5.4630 H       1  UNL1        0.0654
     36 H          -2.5340    2.0490    3.3680 H       1  UNL1        0.0626
     37 H           0.1430    1.6280   -2.4030 H       1  UNL1        0.0624
     38 H           0.2440    3.5270   -3.9670 H       1  UNL1        0.0618
     39 H           0.1800    5.8570   -3.1150 H       1  UNL1        0.0618
     40 H           0.0100    6.2780   -0.6730 H       1  UNL1        0.0618
     41 H          -0.0790    4.3790    0.9100 H       1  UNL1        0.0624
     42 H           3.0710    1.7360   -0.5140 H       1  UNL1        0.0639
     43 H           4.7360    0.6860   -2.0100 H       1  UNL1        0.0830
     44 H           2.8240   -3.5070   -3.0230 H       1  UNL1        0.1673
     45 H          -0.6590   -4.7650   -0.3490 H       1  UNL1        0.0624
     46 H          -1.7330   -6.9180   -0.8690 H       1  UNL1        0.0618
     47 H          -1.3480   -8.0130   -3.0620 H       1  UNL1        0.0618
     48 H           0.1150   -6.9260   -4.7450 H       1  UNL1        0.0618
     49 H           1.1810   -4.7670   -4.2580 H       1  UNL1        0.0624
     50 H          -0.3910   -2.2200   -0.6360 H       1  UNL1        0.0645
     51 H           0.6230   -0.9970    1.7040 H       1  UNL1        0.1674
     52 H          -0.1450   -1.5350    3.7140 H       1  UNL1        0.0626
     53 H          -1.3070   -2.0920    5.8000 H       1  UNL1        0.0654
@<TRIPOS>BOND
     1     1     2    1
     2     1    34    1
     3     2     3   ar
     4     2    33   ar
     5     3     4   ar
     6     3    35    1
     7     4     5   ar
     8     4    36    1
     9     5     6    1
    10     5    32   ar
    11     6     7   ar
    12     6    31   ar
    13     7     8   ar
    14     8     9    1
    15     8    15   ar
    16     9    10   ar
    17     9    14   ar
    18    10    11   ar
    19    10    37    1
    20    11    12   ar
    21    11    38    1
    22    12    13   ar
    23    12    39    1
    24    13    14   ar
    25    13    40    1
    26    14    41    1
    27    15    16    1
    28    15    31   ar
    29    16    17   ar
    30    16    30   ar
    31    17    18   ar
    32    17    42    1
    33    18    19   ar
    34    18    43    1
    35    19    20   ar
    36    20    21   ar
    37    20    30   ar
    38    21    22   ar
    39    21    44    1
    40    22    23    1
    41    22    29   ar
    42    23    24   ar
    43    23    28   ar
    44    24    25   ar
    45    24    45    1
    46    25    26   ar
    47    25    46    1
    48    26    27   ar
    49    26    47    1
    50    27    28   ar
    51    27    48    1
    52    28    49    1
    53    29    30   ar
    54    29    50    1
    55    31    51    1
    56    32    33   ar
    57    32    52    1
    58    33    53    1
@<TRIPOS>MOLECULE
AD3CC01840233-I00-C01
 55 59 0 0 0
SMALL
GASTEIGER

@<TRIPOS>ATOM
      1 C           6.7610    7.0660   -3.0230 C.3     1  UNL1        0.0820
      2 O           5.8880    5.9480   -2.8560 O.3     1  UNL1       -0.4645
      3 C           4.8310    5.9410   -3.7040 C.2     1  UNL1        0.3389
      4 O           4.5880    6.7850   -4.5520 O.2     1  UNL1       -0.2450
      5 C           3.9740    4.7480   -3.4680 C.ar    1  UNL1        0.0597
      6 C           2.8120    4.6080   -4.2350 C.ar    1  UNL1       -0.0474
      7 C           1.9780    3.5020   -4.0570 C.ar    1  UNL1       -0.0539
      8 C           2.2910    2.5180   -3.1060 C.ar    1  UNL1        0.0005
      9 C           3.4420    2.6620   -2.3250 C.ar    1  UNL1        0.0295
     10 C           4.2880    3.7690   -2.5180 C.ar    1  UNL1       -0.0366
     11 C           3.8530    1.6540   -1.3180 C.2     1  UNL1        0.1970
     12 O           5.0620    1.4920   -1.1520 O.2     1  UNL1       -0.2865
     13 C           2.8980    0.8690   -0.4820 C.ar    1  UNL1        0.0640
     14 C           3.4580    0.1590    0.5950 C.ar    1  UNL1       -0.0456
     15 C           2.6550   -0.5490    1.4960 C.ar    1  UNL1       -0.0396
     16 C           1.2660   -0.5720    1.3540 C.ar    1  UNL1        0.0348
     17 N           0.4960   -1.2470    2.3150 N.pl3   1  UNL1       -0.3143
     18 C          -0.8380   -1.0950    2.7370 C.ar    1  UNL1        0.0333
     19 C          -1.5360    0.1140    2.6240 C.ar    1  UNL1       -0.0377
     20 C          -2.8700    0.2100    3.0220 C.ar    1  UNL1       -0.0229
     21 C          -3.5110   -0.9110    3.5320 C.ar    1  UNL1        0.1446
     22 F          -4.7950   -0.8090    3.9130 F       1  UNL1       -0.2035
     23 C          -2.8490   -2.1350    3.6590 C.ar    1  UNL1        0.0708
     24 N          -3.5870   -3.2140    4.1900 N.am    1  UNL1       -0.2829
     25 C          -3.1520   -4.4960    4.4270 C.2     1  UNL1        0.2204
     26 O          -2.0330   -4.9520    4.2490 O.2     1  UNL1       -0.2752
     27 C          -4.2120   -5.3720    4.9990 C.3     1  UNL1        0.0359
     28 C          -5.5430   -5.5540    4.3060 C.3     1  UNL1       -0.0412
     29 C          -4.5490   -6.6770    4.3150 C.3     1  UNL1       -0.0412
     30 C          -1.5140   -2.2170    3.2550 C.ar    1  UNL1       -0.0165
     31 C           0.7120    0.1320    0.2820 C.ar    1  UNL1        0.0020
     32 C           1.5110    0.8230   -0.6460 C.ar    1  UNL1        0.1335
     33 O           0.7910    1.4160   -1.6460 O.3     1  UNL1       -0.4866
     34 C           1.4040    1.3280   -2.9270 C.3     1  UNL1        0.1153
     35 H           7.5740    6.9720   -2.2980 H       1  UNL1        0.0661
     36 H           6.2280    8.0020   -2.8260 H       1  UNL1        0.0661
     37 H           7.1920    7.0690   -4.0290 H       1  UNL1        0.0661
     38 H           2.5510    5.3600   -4.9780 H       1  UNL1        0.0626
     39 H           1.0800    3.4160   -4.6670 H       1  UNL1        0.0622
     40 H           5.1920    3.8560   -1.9170 H       1  UNL1        0.0633
     41 H           4.5360    0.1690    0.7590 H       1  UNL1        0.0626
     42 H           3.1320   -1.0650    2.3260 H       1  UNL1        0.0636
     43 H           0.9770   -2.0270    2.7540 H       1  UNL1        0.1522
     44 H          -1.0370    1.0070    2.2550 H       1  UNL1        0.0637
     45 H          -3.4050    1.1510    2.9420 H       1  UNL1        0.0647
     46 H          -4.5510   -3.0030    4.4290 H       1  UNL1        0.1549
     47 H          -4.2020   -5.4000    6.0850 H       1  UNL1        0.0394
     48 H          -6.4270   -5.6560    4.9240 H       1  UNL1        0.0273
     49 H          -5.7190   -5.0560    3.3590 H       1  UNL1        0.0273
     50 H          -4.7510   -7.5370    4.9420 H       1  UNL1        0.0273
     51 H          -4.0350   -6.9160    3.3900 H       1  UNL1        0.0273
     52 H          -0.9750   -3.1570    3.3220 H       1  UNL1        0.0656
     53 H          -0.3640    0.1130    0.1200 H       1  UNL1        0.0673
     54 H           0.5970    1.3340   -3.6680 H       1  UNL1        0.0748
     55 H           1.9460    0.3840   -3.0780 H       1  UNL1        0.0748
@<TRIPOS>BOND
     1     1     2    1
     2     1    35    1
     3     1    36    1
     4     1    37    1
     5     2     3    1
     6     3     4    2
     7     3     5    1
     8     5     6   ar
     9     5    10   ar
    10     6     7   ar
    11     6    38    1
    12     7     8   ar
    13     7    39    1
    14     8     9   ar
    15     8    34    1
    16     9    10   ar
    17     9    11    1
    18    10    40    1
    19    11    12    2
    20    11    13    1
    21    13    14   ar
    22    13    32   ar
    23    14    15   ar
    24    14    41    1
    25    15    16   ar
    26    15    42    1
    27    16    17    1
    28    16    31   ar
    29    17    18    1
    30    17    43    1
    31    18    19   ar
    32    18    30   ar
    33    19    20   ar
    34    19    44    1
    35    20    21   ar
    36    20    45    1
    37    21    22    1
    38    21    23   ar
    39    23    24    1
    40    23    30   ar
    41    24    25   am
    42    24    46    1
    43    25    26    2
    44    25    27    1
    45    27    28    1
    46    27    29    1
    47    27    47    1
    48    28    29    1
    49    28    48    1
    50    28    49    1
    51    29    50    1
    52    29    51    1
    53    30    52    1
    54    31    32   ar
    55    31    53    1
    56    32    33    1
    57    33    34    1
    58    34    54    1
    59    34    55    1
@<TRIPOS>MOLECULE
AD3CC01840396-I00-C00
 72 77 0 0 0
SMALL
GASTEIGER

@<TRIPOS>ATOM
      1 O           4.6560   -4.5580    3.0060 O.2     1  UNL1       -0.2702
      2 C           3.9310   -3.5990    3.2510 C.2     1  UNL1        0.2441
      3 N           3.5600   -3.2460    4.5270 N.am    1  UNL1       -0.3101
      4 C           3.8810   -4.0730    5.6740 C.3     1  UNL1        0.0247
      5 C           3.5560   -3.3450    6.9910 C.3     1  UNL1        0.0146
      6 N           2.2310   -2.6850    6.9830 N.3     1  UNL1       -0.2965
      7 C           1.1260   -3.6720    6.9780 C.3     1  UNL1        0.0225
      8 C          -0.2460   -2.9830    7.0710 C.3     1  UNL1        0.0604
      9 O          -0.3390   -2.1730    8.2500 O.3     1  UNL1       -0.3772
     10 C           0.6910   -1.1760    8.2390 C.3     1  UNL1        0.0604
     11 C           2.0840   -1.8240    8.1790 C.3     1  UNL1        0.0225
     12 C           3.4280   -2.7410    2.1420 C.ar    1  UNL1        0.0374
     13 C           4.1460   -2.7220    0.9430 C.ar    1  UNL1       -0.0492
     14 C           3.7190   -1.9300   -0.1230 C.ar    1  UNL1       -0.0540
     15 C           2.5570   -1.1490   -0.0130 C.ar    1  UNL1        0.0005
     16 C           1.8160   -1.1840    1.1740 C.ar    1  UNL1        0.0295
     17 C           2.2590   -1.9790    2.2480 C.ar    1  UNL1       -0.0384
     18 C           0.5860   -0.3790    1.3940 C.2     1  UNL1        0.1970
     19 O           0.3260   -0.0740    2.5600 O.2     1  UNL1       -0.2865
     20 C          -0.3540    0.0590    0.3200 C.ar    1  UNL1        0.0640
     21 C          -1.5160    0.7290    0.7380 C.ar    1  UNL1       -0.0456
     22 C          -2.4920    1.1350   -0.1800 C.ar    1  UNL1       -0.0396
     23 C          -2.3520    0.8690   -1.5450 C.ar    1  UNL1        0.0349
     24 N          -3.3360    1.3430   -2.4280 N.pl3   1  UNL1       -0.3121
     25 C          -3.3300    1.5870   -3.8170 C.ar    1  UNL1        0.0689
     26 C          -2.1660    1.9100   -4.5340 C.ar    1  UNL1       -0.0137
     27 C          -2.2030    2.1060   -5.9190 C.ar    1  UNL1        0.0712
     28 N          -1.0800    2.4130   -6.7150 N.am    1  UNL1       -0.2787
     29 C           0.2460    2.5230   -6.3340 C.2     1  UNL1        0.2549
     30 O           0.6490    2.3590   -5.1860 O.2     1  UNL1       -0.2693
     31 C           1.1700    2.8500   -7.4220 C.ar    1  UNL1        0.0742
     32 C           2.5400    3.0180   -7.3160 C.ar    1  UNL1       -0.0425
     33 C           3.1560    3.3290   -8.5620 C.ar    1  UNL1       -0.0540
     34 C           2.2390    3.3910   -9.5860 C.ar    1  UNL1       -0.0236
     35 S           0.6500    3.0760   -9.0420 S.2     1  UNL1       -0.0921
     36 C          -3.4350    1.9960   -6.5800 C.ar    1  UNL1        0.1473
     37 F          -3.4880    2.1880   -7.9080 F       1  UNL1       -0.2034
     38 C          -4.6050    1.6980   -5.8990 C.ar    1  UNL1        0.0125
     39 C          -4.5400    1.4960   -4.5280 C.ar    1  UNL1        0.1473
     40 F          -5.6700    1.2050   -3.8640 F       1  UNL1       -0.2035
     41 C          -1.1960    0.2030   -1.9580 C.ar    1  UNL1        0.0020
     42 C          -0.1980   -0.1810   -1.0470 C.ar    1  UNL1        0.1335
     43 O           0.8710   -0.8040   -1.6290 O.3     1  UNL1       -0.4866
     44 C           2.1170   -0.2990   -1.1630 C.3     1  UNL1        0.1153
     45 H           2.9370   -2.4690    4.7130 H       1  UNL1        0.1490
     46 H           3.3060   -5.0020    5.5840 H       1  UNL1        0.0475
     47 H           4.9430   -4.3370    5.6370 H       1  UNL1        0.0475
     48 H           3.6580   -4.0400    7.8340 H       1  UNL1        0.0442
     49 H           4.3220   -2.5680    7.1220 H       1  UNL1        0.0442
     50 H           1.2360   -4.3590    7.8280 H       1  UNL1        0.0449
     51 H           1.1460   -4.2650    6.0570 H       1  UNL1        0.0449
     52 H          -1.0370   -3.7380    7.1250 H       1  UNL1        0.0572
     53 H          -0.4390   -2.3620    6.1870 H       1  UNL1        0.0572
     54 H           0.5940   -0.5910    9.1590 H       1  UNL1        0.0572
     55 H           0.5300   -0.4970    7.3930 H       1  UNL1        0.0572
     56 H           2.8390   -1.0290    8.1600 H       1  UNL1        0.0449
     57 H           2.2380   -2.4190    9.0890 H       1  UNL1        0.0449
     58 H           5.0480   -3.3250    0.8390 H       1  UNL1        0.0625
     59 H           4.3000   -1.9330   -1.0440 H       1  UNL1        0.0622
     60 H           1.6620   -2.0090    3.1560 H       1  UNL1        0.0632
     61 H          -1.6780    0.9440    1.7940 H       1  UNL1        0.0626
     62 H          -3.3650    1.6690    0.1880 H       1  UNL1        0.0636
     63 H          -4.2750    1.3280   -2.0350 H       1  UNL1        0.1522
     64 H          -1.2390    2.0380   -3.9860 H       1  UNL1        0.0656
     65 H          -1.2700    2.5450   -7.7040 H       1  UNL1        0.1552
     66 H           3.0720    2.9200   -6.3760 H       1  UNL1        0.0630
     67 H           4.2180    3.4980   -8.6990 H       1  UNL1        0.0623
     68 H           2.4260    3.6070  -10.6300 H       1  UNL1        0.0693
     69 H          -5.5480    1.6200   -6.4250 H       1  UNL1        0.0676
     70 H          -1.0490   -0.0460   -3.0060 H       1  UNL1        0.0673
     71 H           2.0810    0.7650   -0.8920 H       1  UNL1        0.0748
     72 H           2.8240   -0.3780   -1.9960 H       1  UNL1        0.0748
@<TRIPOS>BOND
     1     1     2    2
     2     2     3   am
     3     2    12    1
     4     3     4    1
     5     3    45    1
     6     4     5    1
     7     4    46    1
     8     4    47    1
     9     5     6    1
    10     5    48    1
    11     5    49    1
    12     6     7    1
    13     6    11    1
    14     7     8    1
    15     7    50    1
    16     7    51    1
    17     8     9    1
    18     8    52    1
    19     8    53    1
    20     9    10    1
    21    10    11    1
    22    10    54    1
    23    10    55    1
    24    11    56    1
    25    11    57    1
    26    12    13   ar
    27    12    17   ar
    28    13    14   ar
    29    13    58    1
    30    14    15   ar
    31    14    59    1
    32    15    16   ar
    33    15    44    1
    34    16    17   ar
    35    16    18    1
    36    17    60    1
    37    18    19    2
    38    18    20    1
    39    20    21   ar
    40    20    42   ar
    41    21    22   ar
    42    21    61    1
    43    22    23   ar
    44    22    62    1
    45    23    24    1
    46    23    41   ar
    47    24    25    1
    48    24    63    1
    49    25    26   ar
    50    25    39   ar
    51    26    27   ar
    52    26    64    1
    53    27    28    1
    54    27    36   ar
    55    28    29   am
    56    28    65    1
    57    29    30    2
    58    29    31    1
    59    31    32   ar
    60    31    35   ar
    61    32    33   ar
    62    32    66    1
    63    33    34   ar
    64    33    67    1
    65    34    35   ar
    66    34    68    1
    67    36    37    1
    68    36    38   ar
    69    38    39   ar
    70    38    69    1
    71    39    40    1
    72    41    42   ar
    73    41    70    1
    74    42    43    1
    75    43    44    1
    76    44    71    1
    77    44    72    1
@<TRIPOS>MOLECULE
AD3CC01841691-I01-C00
 66 70 0 0 0
SMALL
GASTEIGER

@<TRIPOS>ATOM
      1 O          -1.6620    5.8290   -2.4950 O.2     1  UNL1       -0.2702
      2 C          -1.1500    5.2950   -1.5170 C.2     1  UNL1        0.2442
      3 N          -0.0020    5.7730   -0.9250 N.am    1  UNL1       -0.3088
      4 C           0.7610    6.8900   -1.4740 C.3     1  UNL1        0.0401
      5 C           0.0100    8.2340   -1.3960 C.3     1  UNL1        0.0936
      6 O          -0.8820    8.3800   -2.5140 O.3     1  UNL1       -0.3880
      7 C           0.9810    9.4170   -1.4520 C.3     1  UNL1        0.0716
      8 O           1.6840    9.4130   -2.6930 O.3     1  UNL1       -0.3924
      9 C          -1.7940    4.1130   -0.8820 C.ar    1  UNL1        0.0374
     10 C          -3.1720    3.9400   -1.0420 C.ar    1  UNL1       -0.0493
     11 C          -3.8180    2.8540   -0.4460 C.ar    1  UNL1       -0.0572
     12 C          -3.0950    1.9160    0.3070 C.ar    1  UNL1       -0.0362
     13 C          -1.7120    2.0720    0.4340 C.ar    1  UNL1        0.0262
     14 C          -1.0640    3.1710   -0.1530 C.ar    1  UNL1       -0.0385
     15 C          -0.8740    1.1580    1.2360 C.2     1  UNL1        0.1937
     16 O          -0.0320    1.6830    1.9650 O.2     1  UNL1       -0.2866
     17 C          -0.9440   -0.3300    1.1400 C.ar    1  UNL1        0.0256
     18 C           0.2400   -0.9990    1.5010 C.ar    1  UNL1       -0.0489
     19 C           0.3550   -2.3900    1.4140 C.ar    1  UNL1       -0.0399
     20 C          -0.7120   -3.1640    0.9710 C.ar    1  UNL1        0.0316
     21 N          -0.6410   -4.5580    0.8120 N.pl3   1  UNL1       -0.3144
     22 C           0.4450   -5.4290    0.6030 C.ar    1  UNL1        0.0333
     23 C           0.3290   -6.7600    1.0350 C.ar    1  UNL1       -0.0377
     24 C           1.3890   -7.6540    0.8880 C.ar    1  UNL1       -0.0229
     25 C           2.5750   -7.2140    0.3150 C.ar    1  UNL1        0.1446
     26 F           3.5910   -8.0810    0.1810 F       1  UNL1       -0.2035
     27 C           2.7320   -5.8940   -0.1190 C.ar    1  UNL1        0.0710
     28 N           3.9800   -5.5540   -0.6840 N.am    1  UNL1       -0.2787
     29 C           4.4130   -4.3270   -1.1500 C.2     1  UNL1        0.2549
     30 O           3.7350   -3.3030   -1.1290 O.2     1  UNL1       -0.2693
     31 C           5.7770   -4.3200   -1.6820 C.ar    1  UNL1        0.0742
     32 C           6.4500   -3.2300   -2.2070 C.ar    1  UNL1       -0.0425
     33 C           7.7680   -3.5520   -2.6410 C.ar    1  UNL1       -0.0540
     34 C           8.0660   -4.8790   -2.4350 C.ar    1  UNL1       -0.0236
     35 S           6.7620   -5.7250   -1.7240 S.2     1  UNL1       -0.0921
     36 C           1.6580   -5.0110    0.0290 C.ar    1  UNL1       -0.0165
     37 C          -1.8940   -2.4970    0.6190 C.ar    1  UNL1       -0.0367
     38 C          -2.0450   -1.0900    0.7130 C.ar    1  UNL1       -0.0345
     39 C          -3.3960   -0.5480    0.3150 C.3     1  UNL1       -0.0229
     40 C          -3.8060    0.7680    0.9610 C.3     1  UNL1       -0.0230
     41 H           0.3110    5.3820   -0.0450 H       1  UNL1        0.1491
     42 H           1.6880    6.9300   -0.8920 H       1  UNL1        0.0488
     43 H           1.0030    6.6410   -2.5130 H       1  UNL1        0.0488
     44 H          -0.5850    8.2940   -0.4780 H       1  UNL1        0.0632
     45 H          -1.3320    7.5120   -2.6300 H       1  UNL1        0.2099
     46 H           1.7090    9.3780   -0.6370 H       1  UNL1        0.0583
     47 H           0.4360   10.3640   -1.3890 H       1  UNL1        0.0583
     48 H           0.9830    9.3290   -3.3720 H       1  UNL1        0.2095
     49 H          -3.7500    4.6570   -1.6210 H       1  UNL1        0.0625
     50 H          -4.8950    2.7520   -0.5730 H       1  UNL1        0.0621
     51 H           0.0140    3.2620   -0.0440 H       1  UNL1        0.0632
     52 H           1.1070   -0.4350    1.8460 H       1  UNL1        0.0625
     53 H           1.2910   -2.8510    1.7180 H       1  UNL1        0.0636
     54 H          -1.5400   -5.0240    0.8620 H       1  UNL1        0.1522
     55 H          -0.5900   -7.1060    1.5020 H       1  UNL1        0.0637
     56 H           1.3000   -8.6820    1.2220 H       1  UNL1        0.0647
     57 H           4.6530   -6.3130   -0.7370 H       1  UNL1        0.1552
     58 H           6.0050   -2.2430   -2.2740 H       1  UNL1        0.0630
     59 H           8.4610   -2.8440   -3.0820 H       1  UNL1        0.0623
     60 H           8.9880   -5.3940   -2.6680 H       1  UNL1        0.0693
     61 H           1.7330   -3.9920   -0.3340 H       1  UNL1        0.0656
     62 H          -2.7310   -3.0890    0.2500 H       1  UNL1        0.0639
     63 H          -4.1560   -1.2860    0.6060 H       1  UNL1        0.0317
     64 H          -3.4310   -0.4720   -0.7800 H       1  UNL1        0.0317
     65 H          -3.6160    0.7710    2.0420 H       1  UNL1        0.0317
     66 H          -4.8900    0.8950    0.8430 H       1  UNL1        0.0317
@<TRIPOS>BOND
     1     1     2    2
     2     2     3   am
     3     2     9    1
     4     3     4    1
     5     3    41    1
     6     4     5    1
     7     4    42    1
     8     4    43    1
     9     5     6    1
    10     5     7    1
    11     5    44    1
    12     6    45    1
    13     7     8    1
    14     7    46    1
    15     7    47    1
    16     8    48    1
    17     9    10   ar
    18     9    14   ar
    19    10    11   ar
    20    10    49    1
    21    11    12   ar
    22    11    50    1
    23    12    13   ar
    24    12    40    1
    25    13    14   ar
    26    13    15    1
    27    14    51    1
    28    15    16    2
    29    15    17    1
    30    17    18   ar
    31    17    38   ar
    32    18    19   ar
    33    18    52    1
    34    19    20   ar
    35    19    53    1
    36    20    21    1
    37    20    37   ar
    38    21    22    1
    39    21    54    1
    40    22    23   ar
    41    22    36   ar
    42    23    24   ar
    43    23    55    1
    44    24    25   ar
    45    24    56    1
    46    25    26    1
    47    25    27   ar
    48    27    28    1
    49    27    36   ar
    50    28    29   am
    51    28    57    1
    52    29    30    2
    53    29    31    1
    54    31    32   ar
    55    31    35   ar
    56    32    33   ar
    57    32    58    1
    58    33    34   ar
    59    33    59    1
    60    34    35   ar
    61    34    60    1
    62    36    61    1
    63    37    38   ar
    64    37    62    1
    65    38    39    1
    66    39    40    1
    67    39    63    1
    68    39    64    1
    69    40    65    1
    70    40    66    1
@<TRIPOS>MOLECULE
AD3CC01847305-I00-C00
 57 61 0 0 0
SMALL
GASTEIGER

@<TRIPOS>ATOM
      1 C           5.9670   -6.6330    2.4970 C.3     1  UNL1        0.0820
      2 O           5.2230   -5.4260    2.3260 O.3     1  UNL1       -0.4645
      3 C           4.5250   -5.0470    3.4240 C.2     1  UNL1        0.3389
      4 O           4.4840   -5.6450    4.4880 O.2     1  UNL1       -0.2450
      5 C           3.7840   -3.7820    3.1680 C.ar    1  UNL1        0.0597
      6 C           2.9800   -3.2680    4.1910 C.ar    1  UNL1       -0.0475
      7 C           2.2720   -2.0790    4.0020 C.ar    1  UNL1       -0.0571
      8 C           2.3500   -1.3850    2.7850 C.ar    1  UNL1       -0.0362
      9 C           3.1400   -1.9060    1.7560 C.ar    1  UNL1        0.0262
     10 C           3.8660   -3.0930    1.9530 C.ar    1  UNL1       -0.0367
     11 C           3.3150   -1.2210    0.4570 C.2     1  UNL1        0.1937
     12 O           4.4580   -1.1840   -0.0000 O.2     1  UNL1       -0.2866
     13 C           2.1870   -0.6650   -0.3480 C.ar    1  UNL1        0.0256
     14 C           2.4460   -0.5500   -1.7270 C.ar    1  UNL1       -0.0489
     15 C           1.4750   -0.0870   -2.6200 C.ar    1  UNL1       -0.0399
     16 C           0.2030    0.2650   -2.1720 C.ar    1  UNL1        0.0317
     17 N          -0.7240    0.7670   -3.1000 N.pl3   1  UNL1       -0.3122
     18 C          -1.8790    1.5640   -2.9700 C.ar    1  UNL1        0.0689
     19 C          -2.1080    2.4190   -1.8800 C.ar    1  UNL1       -0.0137
     20 C          -3.2910    3.1590   -1.7790 C.ar    1  UNL1        0.0712
     21 N          -3.6030    4.0210   -0.7060 N.am    1  UNL1       -0.2787
     22 C          -2.9110    4.2090    0.4770 C.2     1  UNL1        0.2549
     23 O          -1.8920    3.5960    0.7820 O.2     1  UNL1       -0.2693
     24 C          -3.5000    5.1990    1.3810 C.ar    1  UNL1        0.0742
     25 C          -3.0110    5.5770    2.6190 C.ar    1  UNL1       -0.0425
     26 C          -3.8160    6.5670    3.2530 C.ar    1  UNL1       -0.0540
     27 C          -4.8990    6.9170    2.4800 C.ar    1  UNL1       -0.0236
     28 S          -4.9390    6.0560    1.0040 S.2     1  UNL1       -0.0921
     29 C          -4.2370    3.0590   -2.8070 C.ar    1  UNL1        0.1473
     30 F          -5.3720    3.7730   -2.7310 F       1  UNL1       -0.2034
     31 C          -4.0350    2.2370   -3.9050 C.ar    1  UNL1        0.0125
     32 C          -2.8630    1.4970   -3.9720 C.ar    1  UNL1        0.1473
     33 F          -2.6660    0.6970   -5.0320 F       1  UNL1       -0.2035
     34 C          -0.0480    0.1600   -0.8010 C.ar    1  UNL1       -0.0367
     35 C           0.9270   -0.2780    0.1320 C.ar    1  UNL1       -0.0345
     36 C           0.4880   -0.2820    1.5770 C.3     1  UNL1       -0.0229
     37 C           1.5940   -0.1010    2.6050 C.3     1  UNL1       -0.0230
     38 H           6.4930   -6.8410    1.5610 H       1  UNL1        0.0661
     39 H           6.7080   -6.5170    3.2930 H       1  UNL1        0.0661
     40 H           5.2950   -7.4700    2.7110 H       1  UNL1        0.0661
     41 H           2.9060   -3.7890    5.1440 H       1  UNL1        0.0626
     42 H           1.6620   -1.6970    4.8190 H       1  UNL1        0.0621
     43 H           4.4990   -3.4650    1.1490 H       1  UNL1        0.0633
     44 H           3.4230   -0.8250   -2.1260 H       1  UNL1        0.0625
     45 H           1.7340    0.0010   -3.6730 H       1  UNL1        0.0636
     46 H          -0.6150    0.3810   -4.0350 H       1  UNL1        0.1522
     47 H          -1.3290    2.5300   -1.1350 H       1  UNL1        0.0656
     48 H          -4.4740    4.5360   -0.7990 H       1  UNL1        0.1552
     49 H          -2.1080    5.1550    3.0470 H       1  UNL1        0.0630
     50 H          -3.6100    6.9990    4.2250 H       1  UNL1        0.0623
     51 H          -5.6710    7.6390    2.7110 H       1  UNL1        0.0693
     52 H          -4.7770    2.1690   -4.6910 H       1  UNL1        0.0676
     53 H          -1.0400    0.4060   -0.4260 H       1  UNL1        0.0639
     54 H          -0.2100    0.5540    1.7220 H       1  UNL1        0.0317
     55 H          -0.0780   -1.2040    1.7660 H       1  UNL1        0.0317
     56 H           2.2810    0.7100    2.3330 H       1  UNL1        0.0317
     57 H           1.1400    0.1920    3.5610 H       1  UNL1        0.0317
@<TRIPOS>BOND
     1     1     2    1
     2     1    38    1
     3     1    39    1
     4     1    40    1
     5     2     3    1
     6     3     4    2
     7     3     5    1
     8     5     6   ar
     9     5    10   ar
    10     6     7   ar
    11     6    41    1
    12     7     8   ar
    13     7    42    1
    14     8     9   ar
    15     8    37    1
    16     9    10   ar
    17     9    11    1
    18    10    43    1
    19    11    12    2
    20    11    13    1
    21    13    14   ar
    22    13    35   ar
    23    14    15   ar
    24    14    44    1
    25    15    16   ar
    26    15    45    1
    27    16    17    1
    28    16    34   ar
    29    17    18    1
    30    17    46    1
    31    18    19   ar
    32    18    32   ar
    33    19    20   ar
    34    19    47    1
    35    20    21    1
    36    20    29   ar
    37    21    22   am
    38    21    48    1
    39    22    23    2
    40    22    24    1
    41    24    25   ar
    42    24    28   ar
    43    25    26   ar
    44    25    49    1
    45    26    27   ar
    46    26    50    1
    47    27    28   ar
    48    27    51    1
    49    29    30    1
    50    29    31   ar
    51    31    32   ar
    52    31    52    1
    53    32    33    1
    54    34    35   ar
    55    34    53    1
    56    35    36    1
    57    36    37    1
    58    36    54    1
    59    36    55    1
    60    37    56    1
    61    37    57    1
@<TRIPOS>MOLECULE
AD3CC01847969-I00-C00
 74 79 0 0 0
SMALL
GASTEIGER

@<TRIPOS>ATOM
      1 O           4.8240   -2.8240    4.4010 O.2     1  UNL1       -0.2702
      2 C           3.7500   -2.3300    4.0760 C.2     1  UNL1        0.2441
      3 N           2.5320   -2.9430    4.2880 N.am    1  UNL1       -0.3101
      4 C           2.4420   -4.1440    5.1010 C.3     1  UNL1        0.0247
      5 C           2.3550   -3.8070    6.6010 C.3     1  UNL1        0.0146
      6 N           1.2620   -2.8600    6.9250 N.3     1  UNL1       -0.2965
      7 C           1.4220   -2.3610    8.3100 C.3     1  UNL1        0.0225
      8 C           0.2710   -1.4250    8.7080 C.3     1  UNL1        0.0604
      9 O          -0.9960   -2.0860    8.5900 O.3     1  UNL1       -0.3772
     10 C          -1.1900   -2.5300    7.2410 C.3     1  UNL1        0.0604
     11 C          -0.0710   -3.4920    6.8050 C.3     1  UNL1        0.0225
     12 C           3.7080   -0.9790    3.4520 C.ar    1  UNL1        0.0374
     13 C           4.7680   -0.1000    3.6880 C.ar    1  UNL1       -0.0493
     14 C           4.7550    1.1830    3.1360 C.ar    1  UNL1       -0.0572
     15 C           3.6880    1.6020    2.3240 C.ar    1  UNL1       -0.0362
     16 C           2.6460    0.7080    2.0580 C.ar    1  UNL1        0.0262
     17 C           2.6520   -0.5750    2.6300 C.ar    1  UNL1       -0.0385
     18 C           1.4690    1.0660    1.2400 C.2     1  UNL1        0.1937
     19 O           0.3730    0.6870    1.6560 O.2     1  UNL1       -0.2866
     20 C           1.5480    1.7670   -0.0770 C.ar    1  UNL1        0.0256
     21 C           0.4450    1.5510   -0.9260 C.ar    1  UNL1       -0.0489
     22 C           0.3900    2.0890   -2.2150 C.ar    1  UNL1       -0.0399
     23 C           1.4330    2.8670   -2.7010 C.ar    1  UNL1        0.0317
     24 N           1.4720    3.3950   -4.0030 N.pl3   1  UNL1       -0.3122
     25 C           0.7410    3.0720   -5.1650 C.ar    1  UNL1        0.0688
     26 C           0.3070    1.7710   -5.4540 C.ar    1  UNL1       -0.0165
     27 C          -0.4280    1.4840   -6.6170 C.ar    1  UNL1        0.0353
     28 N          -0.8130    0.1410   -6.8140 N.am    1  UNL1       -0.2852
     29 C          -1.5290   -0.3860   -7.8690 C.2     1  UNL1        0.2203
     30 O          -1.9670    0.2270   -8.8330 O.2     1  UNL1       -0.2752
     31 C          -1.7850   -1.8600   -7.8090 C.3     1  UNL1        0.0359
     32 C          -2.0670   -2.5890   -6.5150 C.3     1  UNL1       -0.0412
     33 C          -0.7820   -2.8430   -7.2510 C.3     1  UNL1       -0.0412
     34 C          -0.7270    2.5190   -7.5050 C.ar    1  UNL1       -0.0376
     35 C          -0.2920    3.8200   -7.2430 C.ar    1  UNL1       -0.0229
     36 C           0.4350    4.0820   -6.0880 C.ar    1  UNL1        0.1445
     37 F           0.8500    5.3370   -5.8510 F       1  UNL1       -0.2035
     38 C           2.5270    3.0910   -1.8530 C.ar    1  UNL1       -0.0367
     39 C           2.6010    2.5740   -0.5350 C.ar    1  UNL1       -0.0345
     40 C           3.8400    2.9430    0.2440 C.3     1  UNL1       -0.0229
     41 C           3.6810    2.9900    1.7570 C.3     1  UNL1       -0.0230
     42 H           1.7150   -2.3460    4.3290 H       1  UNL1        0.1490
     43 H           1.5570   -4.6940    4.7670 H       1  UNL1        0.0475
     44 H           3.3170   -4.7760    4.9150 H       1  UNL1        0.0475
     45 H           2.2590   -4.7330    7.1820 H       1  UNL1        0.0442
     46 H           3.3110   -3.3480    6.8880 H       1  UNL1        0.0442
     47 H           2.3660   -1.8120    8.4020 H       1  UNL1        0.0449
     48 H           1.4510   -3.2070    9.0090 H       1  UNL1        0.0449
     49 H           0.3870   -1.1190    9.7530 H       1  UNL1        0.0572
     50 H           0.2650   -0.5170    8.0940 H       1  UNL1        0.0572
     51 H          -2.1550   -3.0440    7.1980 H       1  UNL1        0.0572
     52 H          -1.2470   -1.6590    6.5770 H       1  UNL1        0.0572
     53 H          -0.2630   -3.7870    5.7680 H       1  UNL1        0.0449
     54 H          -0.1150   -4.3930    7.4300 H       1  UNL1        0.0449
     55 H           5.6030   -0.4080    4.3160 H       1  UNL1        0.0625
     56 H           5.5850    1.8530    3.3500 H       1  UNL1        0.0621
     57 H           1.8320   -1.2550    2.4090 H       1  UNL1        0.0632
     58 H          -0.3960    0.9450   -0.5870 H       1  UNL1        0.0625
     59 H          -0.4990    1.9090   -2.8120 H       1  UNL1        0.0636
     60 H           1.8470    4.3420   -4.0370 H       1  UNL1        0.1522
     61 H           0.5740    0.9670   -4.7750 H       1  UNL1        0.0656
     62 H          -0.5270   -0.5090   -6.0960 H       1  UNL1        0.1548
     63 H          -2.3480   -2.2070   -8.6730 H       1  UNL1        0.0394
     64 H          -2.8250   -3.3650   -6.5350 H       1  UNL1        0.0273
     65 H          -2.0350   -2.0470   -5.5780 H       1  UNL1        0.0273
     66 H           0.1460   -2.4800   -6.8270 H       1  UNL1        0.0273
     67 H          -0.6720   -3.7910   -7.7680 H       1  UNL1        0.0273
     68 H          -1.2920    2.3480   -8.4170 H       1  UNL1        0.0637
     69 H          -0.5160    4.6260   -7.9340 H       1  UNL1        0.0647
     70 H           3.3590    3.6860   -2.2330 H       1  UNL1        0.0639
     71 H           4.6490    2.2610   -0.0450 H       1  UNL1        0.0317
     72 H           4.1480    3.9510   -0.0670 H       1  UNL1        0.0317
     73 H           4.5170    3.5620    2.1800 H       1  UNL1        0.0317
     74 H           2.7680    3.5180    2.0580 H       1  UNL1        0.0317
@<TRIPOS>BOND
     1     1     2    2
     2     2     3   am
     3     2    12    1
     4     3     4    1
     5     3    42    1
     6     4     5    1
     7     4    43    1
     8     4    44    1
     9     5     6    1
    10     5    45    1
    11     5    46    1
    12     6     7    1
    13     6    11    1
    14     7     8    1
    15     7    47    1
    16     7    48    1
    17     8     9    1
    18     8    49    1
    19     8    50    1
    20     9    10    1
    21    10    11    1
    22    10    51    1
    23    10    52    1
    24    11    53    1
    25    11    54    1
    26    12    13   ar
    27    12    17   ar
    28    13    14   ar
    29    13    55    1
    30    14    15   ar
    31    14    56    1
    32    15    16   ar
    33    15    41    1
    34    16    17   ar
    35    16    18    1
    36    17    57    1
    37    18    19    2
    38    18    20    1
    39    20    21   ar
    40    20    39   ar
    41    21    22   ar
    42    21    58    1
    43    22    23   ar
    44    22    59    1
    45    23    24    1
    46    23    38   ar
    47    24    25    1
    48    24    60    1
    49    25    26   ar
    50    25    36   ar
    51    26    27   ar
    52    26    61    1
    53    27    28    1
    54    27    34   ar
    55    28    29   am
    56    28    62    1
    57    29    30    2
    58    29    31    1
    59    31    32    1
    60    31    33    1
    61    31    63    1
    62    32    33    1
    63    32    64    1
    64    32    65    1
    65    33    66    1
    66    33    67    1
    67    34    35   ar
    68    34    68    1
    69    35    36   ar
    70    35    69    1
    71    36    37    1
    72    38    39   ar
    73    38    70    1
    74    39    40    1
    75    40    41    1
    76    40    71    1
    77    40    72    1
    78    41    73    1
    79    41    74    1
@<TRIPOS>MOLECULE
AD3CC01850807-I00-C00
 83 86 0 0 0
SMALL
GASTEIGER

@<TRIPOS>ATOM
      1 C          -4.7950    9.5870   -7.1550 C.3     1  UNL1       -0.0570
      2 C          -4.8540    9.5420   -5.6380 C.3     1  UNL1        0.0215
      3 C          -4.2040    8.2920   -5.0640 C.2     1  UNL1        0.2169
      4 O          -3.6840    7.4440   -5.7790 O.2     1  UNL1       -0.2755
      5 N          -4.2910    8.2730   -3.6790 N.am    1  UNL1       -0.2852
      6 C          -3.8210    7.2790   -2.7860 C.ar    1  UNL1        0.0381
      7 C          -3.1690    6.1180   -3.2280 C.ar    1  UNL1       -0.0190
      8 C          -2.7000    5.1290   -2.3420 C.ar    1  UNL1        0.0353
      9 N          -2.0630    4.0050   -2.8810 N.pl3   1  UNL1       -0.2835
     10 C          -1.4840    2.8630   -2.3400 C.ar    1  UNL1        0.2212
     11 N          -1.4900    2.6110   -1.0270 N.ar    1  UNL1       -0.2218
     12 C          -0.8830    1.4790   -0.6150 C.ar    1  UNL1        0.0466
     13 C          -0.2710    0.5820   -1.4630 C.ar    1  UNL1        0.0948
     14 C           0.4060   -0.6010   -0.8770 C.2     1  UNL1        0.2531
     15 O           0.0460   -0.9720    0.2360 O.2     1  UNL1       -0.2697
     16 N           1.4050   -1.1650   -1.6490 N.am    1  UNL1       -0.2811
     17 C           2.2180   -2.2850   -1.3590 C.ar    1  UNL1        0.0384
     18 C           2.0880   -3.0220   -0.1730 C.ar    1  UNL1       -0.0189
     19 C           2.9030   -4.1320    0.0980 C.ar    1  UNL1        0.0354
     20 N           2.6900   -4.8020    1.3220 N.am    1  UNL1       -0.2814
     21 C           3.4270   -5.8490    1.8440 C.2     1  UNL1        0.2485
     22 O           4.4360   -6.3570    1.3700 O.2     1  UNL1       -0.2698
     23 C           2.9360   -6.3580    3.1520 C.ar    1  UNL1        0.0442
     24 C           1.5670   -6.5460    3.3850 C.ar    1  UNL1       -0.0039
     25 C           1.1390   -7.0200    4.6250 C.ar    1  UNL1        0.1659
     26 O          -0.1790   -7.2140    4.9460 O.3     1  UNL1       -0.4913
     27 C          -1.0100   -7.6640    3.8810 C.3     1  UNL1        0.0790
     28 C           2.0870   -7.2680    5.6330 C.ar    1  UNL1        0.2035
     29 O           1.6660   -7.7550    6.8510 O.3     1  UNL1       -0.4885
     30 C           1.3900   -6.6690    7.7350 C.3     1  UNL1        0.0791
     31 C           3.4640   -7.1210    5.3910 C.ar    1  UNL1        0.1659
     32 O           4.3000   -7.4300    6.4340 O.3     1  UNL1       -0.4913
     33 C           5.7000   -7.3580    6.1960 C.3     1  UNL1        0.0790
     34 C           3.8820   -6.6660    4.1410 C.ar    1  UNL1       -0.0039
     35 C           3.8560   -4.5140   -0.8400 C.ar    1  UNL1       -0.0401
     36 C           4.0000   -3.7930   -2.0270 C.ar    1  UNL1       -0.0553
     37 C           3.1940   -2.6760   -2.2990 C.ar    1  UNL1       -0.0291
     38 C           3.4070   -1.9450   -3.5970 C.3     1  UNL1       -0.0380
     39 C          -0.3410    0.8940   -2.8140 C.ar    1  UNL1        0.1358
     40 N           0.2170    0.0190   -3.7810 N.pl3   1  UNL1       -0.3314
     41 C           0.0830    0.4820   -5.1600 C.3     1  UNL1       -0.0011
     42 N          -0.9250    2.0340   -3.2400 N.ar    1  UNL1       -0.1987
     43 C          -2.9130    5.3280   -0.9810 C.ar    1  UNL1       -0.0401
     44 C          -3.5590    6.4770   -0.5150 C.ar    1  UNL1       -0.0553
     45 C          -4.0180    7.4610   -1.4030 C.ar    1  UNL1       -0.0291
     46 C          -4.7010    8.6760   -0.8320 C.3     1  UNL1       -0.0380
     47 H          -3.7570    9.5820   -7.5070 H       1  UNL1        0.0234
     48 H          -5.2770   10.4940   -7.5310 H       1  UNL1        0.0234
     49 H          -5.3020    8.7220   -7.5950 H       1  UNL1        0.0234
     50 H          -5.9010    9.5690   -5.3150 H       1  UNL1        0.0356
     51 H          -4.3430   10.4200   -5.2280 H       1  UNL1        0.0356
     52 H          -4.7480    9.0690   -3.2560 H       1  UNL1        0.1548
     53 H          -3.0060    5.9550   -4.2880 H       1  UNL1        0.0655
     54 H          -1.9350    4.0000   -3.8830 H       1  UNL1        0.1550
     55 H          -0.8970    1.3220    0.4610 H       1  UNL1        0.0839
     56 H           1.5720   -0.7060   -2.5430 H       1  UNL1        0.1551
     57 H           1.3470   -2.7390    0.5660 H       1  UNL1        0.0655
     58 H           1.9610   -4.4110    1.9080 H       1  UNL1        0.1551
     59 H           0.8530   -6.3320    2.5970 H       1  UNL1        0.0663
     60 H          -1.9310   -8.0600    4.3210 H       1  UNL1        0.0660
     61 H          -0.5380   -8.4710    3.3090 H       1  UNL1        0.0660
     62 H          -1.2850   -6.8300    3.2280 H       1  UNL1        0.0660
     63 H           1.0820   -7.0900    8.6960 H       1  UNL1        0.0660
     64 H           0.5690   -6.0480    7.3600 H       1  UNL1        0.0660
     65 H           2.2820   -6.0560    7.9070 H       1  UNL1        0.0660
     66 H           6.0030   -8.0500    5.4020 H       1  UNL1        0.0660
     67 H           6.2110   -7.6600    7.1150 H       1  UNL1        0.0660
     68 H           6.0080   -6.3320    5.9680 H       1  UNL1        0.0660
     69 H           4.9330   -6.5310    3.9050 H       1  UNL1        0.0663
     70 H           4.5040   -5.3710   -0.6810 H       1  UNL1        0.0636
     71 H           4.7580   -4.1160   -2.7390 H       1  UNL1        0.0621
     72 H           3.6470   -0.8930   -3.4090 H       1  UNL1        0.0278
     73 H           4.2400   -2.3700   -4.1680 H       1  UNL1        0.0278
     74 H           2.5120   -2.0130   -4.2230 H       1  UNL1        0.0278
     75 H          -0.2350   -0.8930   -3.6730 H       1  UNL1        0.1471
     76 H           0.5960    1.4370   -5.3120 H       1  UNL1        0.0426
     77 H           0.5520   -0.2500   -5.8240 H       1  UNL1        0.0426
     78 H          -0.9680    0.5730   -5.4540 H       1  UNL1        0.0426
     79 H          -2.5790    4.5990   -0.2500 H       1  UNL1        0.0636
     80 H          -3.7010    6.5910    0.5580 H       1  UNL1        0.0621
     81 H          -4.1380    9.5810   -1.0830 H       1  UNL1        0.0278
     82 H          -4.7700    8.6260    0.2600 H       1  UNL1        0.0278
     83 H          -5.7220    8.7560   -1.2190 H       1  UNL1        0.0278
@<TRIPOS>BOND
     1     1     2    1
     2     1    47    1
     3     1    48    1
     4     1    49    1
     5     2     3    1
     6     2    50    1
     7     2    51    1
     8     3     4    2
     9     3     5   am
    10     5     6    1
    11     5    52    1
    12     6     7   ar
    13     6    45   ar
    14     7     8   ar
    15     7    53    1
    16     8     9    1
    17     8    43   ar
    18     9    10    1
    19     9    54    1
    20    10    11   ar
    21    10    42   ar
    22    11    12   ar
    23    12    13   ar
    24    12    55    1
    25    13    14    1
    26    13    39   ar
    27    14    15    2
    28    14    16   am
    29    16    17    1
    30    16    56    1
    31    17    18   ar
    32    17    37   ar
    33    18    19   ar
    34    18    57    1
    35    19    20    1
    36    19    35   ar
    37    20    21   am
    38    20    58    1
    39    21    22    2
    40    21    23    1
    41    23    24   ar
    42    23    34   ar
    43    24    25   ar
    44    24    59    1
    45    25    26    1
    46    25    28   ar
    47    26    27    1
    48    27    60    1
    49    27    61    1
    50    27    62    1
    51    28    29    1
    52    28    31   ar
    53    29    30    1
    54    30    63    1
    55    30    64    1
    56    30    65    1
    57    31    32    1
    58    31    34   ar
    59    32    33    1
    60    33    66    1
    61    33    67    1
    62    33    68    1
    63    34    69    1
    64    35    36   ar
    65    35    70    1
    66    36    37   ar
    67    36    71    1
    68    37    38    1
    69    38    72    1
    70    38    73    1
    71    38    74    1
    72    39    40    1
    73    39    42   ar
    74    40    41    1
    75    40    75    1
    76    41    76    1
    77    41    77    1
    78    41    78    1
    79    43    44   ar
    80    43    79    1
    81    44    45   ar
    82    44    80    1
    83    45    46    1
    84    46    81    1
    85    46    82    1
    86    46    83    1
@<TRIPOS>MOLECULE
AD3CC01864930-I00-C00
 52 56 0 0 0
SMALL
GASTEIGER

@<TRIPOS>ATOM
      1 O          -2.1000    1.3460    3.2880 O.3     1  UNL1       -0.3950
      2 C          -2.0950    0.6420    4.5240 C.3     1  UNL1        0.0446
      3 C          -1.6810   -0.8160    4.3320 C.3     1  UNL1       -0.0229
      4 C          -2.6720   -1.6330    3.4940 C.3     1  UNL1        0.0075
      5 C          -2.3760   -1.6310    2.0320 C.ar    1  UNL1        0.1083
      6 N          -2.2600   -2.6820    1.2490 N.ar    1  UNL1       -0.2319
      7 C          -1.9740   -2.1880   -0.0070 C.ar    1  UNL1        0.0968
      8 C          -1.7500   -3.0700   -1.1410 C.ar    1  UNL1        0.0026
      9 C          -2.5230   -4.2360   -1.2620 C.ar    1  UNL1       -0.0498
     10 C          -2.3300   -5.1070   -2.3370 C.ar    1  UNL1       -0.0258
     11 C          -1.3570   -4.8170   -3.2850 C.ar    1  UNL1        0.1234
     12 F          -1.1720   -5.6500   -4.3170 F       1  UNL1       -0.2055
     13 C          -0.5690   -3.6770   -3.1750 C.ar    1  UNL1       -0.0258
     14 C          -0.7610   -2.8060   -2.1000 C.ar    1  UNL1       -0.0498
     15 C          -1.9550   -0.8000   -0.0010 C.ar    1  UNL1        0.0748
     16 C          -1.7940    0.2150   -1.0300 C.ar    1  UNL1        0.0125
     17 C          -2.5270    0.1950   -2.2200 C.ar    1  UNL1       -0.0337
     18 C          -2.3300    1.2100   -3.1450 C.ar    1  UNL1        0.0305
     19 N          -1.4770    2.2500   -3.0070 N.ar    1  UNL1       -0.2374
     20 C          -0.7940    2.2180   -1.8490 C.ar    1  UNL1        0.1392
     21 N           0.1290    3.1550   -1.4760 N.ar    1  UNL1       -0.3391
     22 C           0.6700    2.8470   -0.2460 C.ar    1  UNL1        0.0486
     23 C           1.6850    3.6720    0.4160 C.ar    1  UNL1       -0.0016
     24 C           1.7550    3.7160    1.8160 C.ar    1  UNL1       -0.0526
     25 C           2.7160    4.5000    2.4610 C.ar    1  UNL1       -0.0611
     26 C           3.6220    5.2480    1.7130 C.ar    1  UNL1       -0.0617
     27 C           3.5690    5.2090    0.3210 C.ar    1  UNL1       -0.0611
     28 C           2.6080    4.4260   -0.3230 C.ar    1  UNL1       -0.0526
     29 C           0.0490    1.6760    0.1650 C.ar    1  UNL1       -0.0265
     30 C          -0.8830    1.2730   -0.8360 C.ar    1  UNL1        0.0284
     31 N          -2.2100   -0.4790    1.3120 N.ar    1  UNL1       -0.3413
     32 H          -2.2890    2.2800    3.5030 H       1  UNL1        0.2094
     33 H          -3.0950    0.7080    4.9670 H       1  UNL1        0.0557
     34 H          -1.3870    1.1390    5.1950 H       1  UNL1        0.0557
     35 H          -0.6790   -0.8630    3.8880 H       1  UNL1        0.0291
     36 H          -1.6180   -1.2710    5.3280 H       1  UNL1        0.0291
     37 H          -3.7010   -1.2960    3.6650 H       1  UNL1        0.0344
     38 H          -2.6260   -2.6750    3.8350 H       1  UNL1        0.0344
     39 H          -3.2770   -4.4660   -0.5120 H       1  UNL1        0.0625
     40 H          -2.9280   -6.0070   -2.4340 H       1  UNL1        0.0646
     41 H           0.1940   -3.4770   -3.9200 H       1  UNL1        0.0646
     42 H          -0.1210   -1.9310   -2.0110 H       1  UNL1        0.0625
     43 H          -3.2450   -0.5930   -2.4230 H       1  UNL1        0.0639
     44 H          -2.8920    1.2100   -4.0760 H       1  UNL1        0.0830
     45 H           0.3530    3.9600   -2.0390 H       1  UNL1        0.1673
     46 H           1.0560    3.1450    2.4220 H       1  UNL1        0.0624
     47 H           2.7570    4.5250    3.5460 H       1  UNL1        0.0618
     48 H           4.3720    5.8550    2.2130 H       1  UNL1        0.0618
     49 H           4.2820    5.7840   -0.2650 H       1  UNL1        0.0618
     50 H           2.6080    4.4000   -1.4090 H       1  UNL1        0.0624
     51 H           0.2560    1.1510    1.0890 H       1  UNL1        0.0645
     52 H          -2.2490    0.4550    1.7090 H       1  UNL1        0.1671
@<TRIPOS>BOND
     1     1     2    1
     2     1    32    1
     3     2     3    1
     4     2    33    1
     5     2    34    1
     6     3     4    1
     7     3    35    1
     8     3    36    1
     9     4     5    1
    10     4    37    1
    11     4    38    1
    12     5     6   ar
    13     5    31   ar
    14     6     7   ar
    15     7     8    1
    16     7    15   ar
    17     8     9   ar
    18     8    14   ar
    19     9    10   ar
    20     9    39    1
    21    10    11   ar
    22    10    40    1
    23    11    12    1
    24    11    13   ar
    25    13    14   ar
    26    13    41    1
    27    14    42    1
    28    15    16    1
    29    15    31   ar
    30    16    17   ar
    31    16    30   ar
    32    17    18   ar
    33    17    43    1
    34    18    19   ar
    35    18    44    1
    36    19    20   ar
    37    20    21   ar
    38    20    30   ar
    39    21    22   ar
    40    21    45    1
    41    22    23    1
    42    22    29   ar
    43    23    24   ar
    44    23    28   ar
    45    24    25   ar
    46    24    46    1
    47    25    26   ar
    48    25    47    1
    49    26    27   ar
    50    26    48    1
    51    27    28   ar
    52    27    49    1
    53    28    50    1
    54    29    30   ar
    55    29    51    1
    56    31    52    1
@<TRIPOS>MOLECULE
AD3CC01866046-I00-C00
 61 65 0 0 0
SMALL
GASTEIGER

@<TRIPOS>ATOM
      1 C          -4.7760    1.8170    7.6510 C.3     1  UNL1        0.0004
      2 N          -4.3600    1.1900    6.4220 N.am    1  UNL1       -0.3144
      3 C          -4.4470    1.8690    5.2240 C.2     1  UNL1        0.2439
      4 O          -4.8100    3.0360    5.1320 O.2     1  UNL1       -0.2702
      5 C          -4.1110    1.0950    3.9970 C.ar    1  UNL1        0.0374
      6 C          -4.6770    1.4900    2.7820 C.ar    1  UNL1       -0.0493
      7 C          -4.4000    0.7790    1.6120 C.ar    1  UNL1       -0.0572
      8 C          -3.5420   -0.3310    1.6350 C.ar    1  UNL1       -0.0362
      9 C          -2.9470   -0.7040    2.8440 C.ar    1  UNL1        0.0262
     10 C          -3.2380    0.0030    4.0230 C.ar    1  UNL1       -0.0385
     11 C          -2.0590   -1.8770    2.9750 C.2     1  UNL1        0.1937
     12 O          -2.2310   -2.5880    3.9670 O.2     1  UNL1       -0.2866
     13 C          -0.9400   -2.1880    2.0360 C.ar    1  UNL1        0.0256
     14 C           0.0860   -2.9810    2.5850 C.ar    1  UNL1       -0.0489
     15 C           1.2290   -3.3110    1.8510 C.ar    1  UNL1       -0.0399
     16 C           1.3890   -2.8680    0.5390 C.ar    1  UNL1        0.0317
     17 N           2.5870   -3.1670   -0.1310 N.pl3   1  UNL1       -0.3122
     18 C           3.2310   -2.5970   -1.2480 C.ar    1  UNL1        0.0689
     19 C           3.0200   -1.2760   -1.6710 C.ar    1  UNL1       -0.0137
     20 C           3.6560   -0.7720   -2.8110 C.ar    1  UNL1        0.0712
     21 N           3.4720    0.5390   -3.3050 N.am    1  UNL1       -0.2791
     22 C           2.5120    1.4510   -2.9090 C.2     1  UNL1        0.2483
     23 O           1.5990    1.2440   -2.1190 O.2     1  UNL1       -0.2699
     24 C           2.5960    2.7840   -3.5740 C.ar    1  UNL1        0.0370
     25 C           3.8230    3.3500   -3.9460 C.ar    1  UNL1       -0.0496
     26 C           3.8540    4.6010   -4.5650 C.ar    1  UNL1       -0.0610
     27 C           2.6670    5.2930   -4.8070 C.ar    1  UNL1       -0.0617
     28 C           1.4460    4.7410   -4.4230 C.ar    1  UNL1       -0.0610
     29 C           1.4090    3.4920   -3.8030 C.ar    1  UNL1       -0.0496
     30 C           4.5470   -1.5990   -3.5070 C.ar    1  UNL1        0.1473
     31 F           5.1800   -1.1220   -4.5910 F       1  UNL1       -0.2034
     32 C           4.7920   -2.9030   -3.1060 C.ar    1  UNL1        0.0125
     33 C           4.1300   -3.3880   -1.9870 C.ar    1  UNL1        0.1473
     34 F           4.3630   -4.6520   -1.5980 F       1  UNL1       -0.2035
     35 C           0.3620   -2.0920   -0.0070 C.ar    1  UNL1       -0.0367
     36 C          -0.8160   -1.7540    0.7080 C.ar    1  UNL1       -0.0345
     37 C          -1.8240   -0.9270   -0.0530 C.3     1  UNL1       -0.0229
     38 C          -3.2750   -1.0960    0.3720 C.3     1  UNL1       -0.0230
     39 H          -4.3700    1.2450    8.4880 H       1  UNL1        0.0426
     40 H          -4.4150    2.8480    7.6920 H       1  UNL1        0.0426
     41 H          -5.8690    1.8120    7.6940 H       1  UNL1        0.0426
     42 H          -4.3020    0.1800    6.4090 H       1  UNL1        0.1487
     43 H          -5.3440    2.3500    2.7450 H       1  UNL1        0.0625
     44 H          -4.8660    1.1010    0.6820 H       1  UNL1        0.0621
     45 H          -2.7580   -0.3020    4.9500 H       1  UNL1        0.0632
     46 H           0.0140   -3.3370    3.6120 H       1  UNL1        0.0625
     47 H           2.0050   -3.9030    2.3320 H       1  UNL1        0.0636
     48 H           2.9990   -4.0540    0.1500 H       1  UNL1        0.1522
     49 H           2.3870   -0.6300   -1.0740 H       1  UNL1        0.0656
     50 H           4.0350    0.7700   -4.1170 H       1  UNL1        0.1552
     51 H           4.7630    2.8470   -3.7350 H       1  UNL1        0.0625
     52 H           4.8060    5.0440   -4.8500 H       1  UNL1        0.0618
     53 H           2.6950    6.2690   -5.2850 H       1  UNL1        0.0618
     54 H           0.5220    5.2870   -4.6000 H       1  UNL1        0.0618
     55 H           0.4530    3.0700   -3.4980 H       1  UNL1        0.0625
     56 H           5.4820   -3.5320   -3.6550 H       1  UNL1        0.0676
     57 H           0.4470   -1.7550   -1.0390 H       1  UNL1        0.0639
     58 H          -1.5190    0.1270   -0.0020 H       1  UNL1        0.0317
     59 H          -1.7750   -1.2200   -1.1110 H       1  UNL1        0.0317
     60 H          -3.9210   -0.7150   -0.4290 H       1  UNL1        0.0317
     61 H          -3.5440   -2.1510    0.5040 H       1  UNL1        0.0317
@<TRIPOS>BOND
     1     1     2    1
     2     1    39    1
     3     1    40    1
     4     1    41    1
     5     2     3   am
     6     2    42    1
     7     3     4    2
     8     3     5    1
     9     5     6   ar
    10     5    10   ar
    11     6     7   ar
    12     6    43    1
    13     7     8   ar
    14     7    44    1
    15     8     9   ar
    16     8    38    1
    17     9    10   ar
    18     9    11    1
    19    10    45    1
    20    11    12    2
    21    11    13    1
    22    13    14   ar
    23    13    36   ar
    24    14    15   ar
    25    14    46    1
    26    15    16   ar
    27    15    47    1
    28    16    17    1
    29    16    35   ar
    30    17    18    1
    31    17    48    1
    32    18    19   ar
    33    18    33   ar
    34    19    20   ar
    35    19    49    1
    36    20    21    1
    37    20    30   ar
    38    21    22   am
    39    21    50    1
    40    22    23    2
    41    22    24    1
    42    24    25   ar
    43    24    29   ar
    44    25    26   ar
    45    25    51    1
    46    26    27   ar
    47    26    52    1
    48    27    28   ar
    49    27    53    1
    50    28    29   ar
    51    28    54    1
    52    29    55    1
    53    30    31    1
    54    30    32   ar
    55    32    33   ar
    56    32    56    1
    57    33    34    1
    58    35    36   ar
    59    35    57    1
    60    36    37    1
    61    37    38    1
    62    37    58    1
    63    37    59    1
    64    38    60    1
    65    38    61    1
@<TRIPOS>MOLECULE
AD3CC01866809-I00-C00
 33 35 0 0 0
SMALL
GASTEIGER

@<TRIPOS>ATOM
      1 F          -0.2730   -3.9880   -0.3590 F       1  UNL1       -0.2051
      2 C          -0.7930   -3.8860   -1.5910 C.ar    1  UNL1        0.1294
      3 C          -1.1860   -5.0580   -2.2350 C.ar    1  UNL1       -0.0260
      4 C          -1.7370   -4.9940   -3.5100 C.ar    1  UNL1       -0.0577
      5 C          -1.8890   -3.7550   -4.1320 C.ar    1  UNL1       -0.0429
      6 C          -1.4910   -2.5820   -3.4770 C.ar    1  UNL1        0.0484
      7 CL         -1.6990   -1.0890   -4.3230 Cl      1  UNL1       -0.0831
      8 C          -0.9350   -2.6290   -2.1900 C.ar    1  UNL1        0.0231
      9 C          -0.4920   -1.3980   -1.4420 C.3     1  UNL1        0.0411
     10 N           0.7170   -0.8490   -2.0430 N.pl3   1  UNL1       -0.3096
     11 C           1.3270    0.1600   -1.3850 C.ar    1  UNL1        0.2117
     12 N           1.1320    0.6010   -0.1690 N.ar    1  UNL1       -0.1935
     13 C           2.0290    1.6430   -0.0390 C.ar    1  UNL1        0.1829
     14 C           2.1400    2.4250    1.1900 C.ar    1  UNL1        0.0209
     15 C           3.0430    3.4940    1.2870 C.ar    1  UNL1       -0.0510
     16 C           3.1420    4.2380    2.4670 C.ar    1  UNL1       -0.0611
     17 C           2.3390    3.9210    3.5610 C.ar    1  UNL1       -0.0617
     18 C           1.4380    2.8610    3.4780 C.ar    1  UNL1       -0.0611
     19 C           1.3390    2.1180    2.2990 C.ar    1  UNL1       -0.0510
     20 N           2.7700    1.8600   -1.1400 N.ar    1  UNL1       -0.1510
     21 N           2.3160    0.9030   -1.9640 N.ar    1  UNL1       -0.2464
     22 H          -1.0590   -6.0120   -1.7320 H       1  UNL1        0.0646
     23 H          -2.0470   -5.9040   -4.0190 H       1  UNL1        0.0619
     24 H          -2.3190   -3.7080   -5.1300 H       1  UNL1        0.0632
     25 H          -0.3150   -1.6450   -0.3870 H       1  UNL1        0.0513
     26 H          -1.3000   -0.6550   -1.4520 H       1  UNL1        0.0513
     27 H           0.6820   -0.8170   -3.0580 H       1  UNL1        0.1492
     28 H           3.6770    3.7530    0.4420 H       1  UNL1        0.0625
     29 H           3.8470    5.0630    2.5280 H       1  UNL1        0.0618
     30 H           2.4170    4.4990    4.4780 H       1  UNL1        0.0618
     31 H           0.8110    2.6110    4.3300 H       1  UNL1        0.0618
     32 H           0.6310    1.2920    2.2500 H       1  UNL1        0.0625
     33 H           2.7190    0.8040   -2.8860 H       1  UNL1        0.1918
@<TRIPOS>BOND
     1     1     2    1
     2     2     3   ar
     3     2     8   ar
     4     3     4   ar
     5     3    22    1
     6     4     5   ar
     7     4    23    1
     8     5     6   ar
     9     5    24    1
    10     6     7    1
    11     6     8   ar
    12     8     9    1
    13     9    10    1
    14     9    25    1
    15     9    26    1
    16    10    11    1
    17    10    27    1
    18    11    12   ar
    19    11    21   ar
    20    12    13   ar
    21    13    14    1
    22    13    20   ar
    23    14    15   ar
    24    14    19   ar
    25    15    16   ar
    26    15    28    1
    27    16    17   ar
    28    16    29    1
    29    17    18   ar
    30    17    30    1
    31    18    19   ar
    32    18    31    1
    33    19    32    1
    34    20    21   ar
    35    21    33    1
@<TRIPOS>MOLECULE
AD3CC01867538-I00-C00
 63 67 0 0 0
SMALL
GASTEIGER

@<TRIPOS>ATOM
      1 C          -2.3050   -7.3030    2.4210 C.3     1  UNL1       -0.0107
      2 S          -1.1370   -7.5840    1.0710 S.3     1  UNL1       -0.0911
      3 C          -0.4160   -6.0130    0.9420 C.ar    1  UNL1        0.1695
      4 N          -0.7330   -4.9780    1.6800 N.ar    1  UNL1       -0.2212
      5 C           0.1100   -3.9720    1.2760 C.ar    1  UNL1        0.0978
      6 C           0.0460   -2.6430    1.8610 C.ar    1  UNL1        0.0026
      7 C           1.2030   -1.9400    2.2280 C.ar    1  UNL1       -0.0498
      8 C           1.1070   -0.6560    2.7700 C.ar    1  UNL1       -0.0258
      9 C          -0.1450   -0.0810    2.9520 C.ar    1  UNL1        0.1234
     10 F          -0.2360    1.1560    3.4580 F       1  UNL1       -0.2055
     11 C          -1.3050   -0.7680    2.6150 C.ar    1  UNL1       -0.0258
     12 C          -1.2090   -2.0520    2.0740 C.ar    1  UNL1       -0.0498
     13 C           0.9550   -4.3990    0.2560 C.ar    1  UNL1        0.0772
     14 C           1.9710   -3.6840   -0.5130 C.ar    1  UNL1        0.0053
     15 C           3.3020   -4.0880   -0.4900 C.ar    1  UNL1       -0.0343
     16 C           4.2120   -3.3590   -1.2310 C.ar    1  UNL1        0.0303
     17 N           3.8890   -2.2690   -1.9620 N.ar    1  UNL1       -0.2402
     18 C           2.6040   -1.8600   -1.9510 C.ar    1  UNL1        0.1235
     19 N           2.3140   -0.7190   -2.7080 N.pl3   1  UNL1       -0.2994
     20 C           1.4660    0.3700   -2.4280 C.ar    1  UNL1        0.0325
     21 C           1.1680    1.2640   -3.4630 C.ar    1  UNL1       -0.0388
     22 C           0.3170    2.3590   -3.2580 C.ar    1  UNL1       -0.0387
     23 C          -0.2570    2.5830   -2.0090 C.ar    1  UNL1        0.0338
     24 N          -1.1160    3.6610   -1.7130 N.am    1  UNL1       -0.2815
     25 C          -1.5960    4.6170   -2.5900 C.2     1  UNL1        0.2483
     26 O          -1.4160    4.6660   -3.8010 O.2     1  UNL1       -0.2699
     27 C          -2.4530    5.6600   -1.9630 C.ar    1  UNL1        0.0388
     28 C          -3.5660    6.1230   -2.6710 C.ar    1  UNL1       -0.0495
     29 C          -4.4100    7.0680   -2.0920 C.ar    1  UNL1       -0.0593
     30 C          -4.1230    7.5710   -0.8210 C.ar    1  UNL1       -0.0410
     31 C          -2.9670    7.1790   -0.1380 C.ar    1  UNL1        0.0253
     32 N          -2.7450    7.6110    1.1750 N.pl3   1  UNL1       -0.3579
     33 C          -2.1590    6.1870   -0.6970 C.ar    1  UNL1       -0.0289
     34 C           0.0380    1.6970   -0.9690 C.ar    1  UNL1       -0.0387
     35 C           0.8880    0.6030   -1.1780 C.ar    1  UNL1       -0.0388
     36 C           1.6200   -2.5600   -1.2630 C.ar    1  UNL1       -0.0124
     37 N           0.5680   -5.7120    0.0350 N.ar    1  UNL1       -0.3213
     38 C           1.0730   -6.5930   -0.9950 C.3     1  UNL1        0.0143
     39 H          -1.7780   -7.0060    3.3320 H       1  UNL1        0.0345
     40 H          -2.8480   -8.2300    2.6240 H       1  UNL1        0.0345
     41 H          -3.0300   -6.5310    2.1510 H       1  UNL1        0.0345
     42 H           2.1870   -2.3860    2.1010 H       1  UNL1        0.0625
     43 H           1.9990   -0.1050    3.0500 H       1  UNL1        0.0646
     44 H          -2.2730   -0.3060    2.7740 H       1  UNL1        0.0646
     45 H          -2.1160   -2.5940    1.8130 H       1  UNL1        0.0625
     46 H           3.6300   -4.9430    0.0910 H       1  UNL1        0.0639
     47 H           5.2630   -3.6350   -1.2560 H       1  UNL1        0.0830
     48 H           3.1760   -0.4230   -3.1590 H       1  UNL1        0.1536
     49 H           1.5890    1.1100   -4.4540 H       1  UNL1        0.0637
     50 H           0.1260    3.0170   -4.1000 H       1  UNL1        0.0637
     51 H          -1.4670    3.6920   -0.7650 H       1  UNL1        0.1551
     52 H          -3.7880    5.7310   -3.6620 H       1  UNL1        0.0625
     53 H          -5.2950    7.4070   -2.6240 H       1  UNL1        0.0618
     54 H          -4.8080    8.2850   -0.3710 H       1  UNL1        0.0636
     55 H          -3.1660    8.5100    1.3880 H       1  UNL1        0.1423
     56 H          -1.7740    7.5690    1.4680 H       1  UNL1        0.1423
     57 H          -1.2830    5.8470   -0.1520 H       1  UNL1        0.0643
     58 H          -0.3810    1.8400    0.0240 H       1  UNL1        0.0637
     59 H           1.1070   -0.0410   -0.3330 H       1  UNL1        0.0637
     60 H           0.5850   -2.2380   -1.3170 H       1  UNL1        0.0658
     61 H           1.5600   -6.0150   -1.7830 H       1  UNL1        0.0456
     62 H           0.2420   -7.1420   -1.4450 H       1  UNL1        0.0456
     63 H           1.7880   -7.2800   -0.5360 H       1  UNL1        0.0456
@<TRIPOS>BOND
     1     1     2    1
     2     1    39    1
     3     1    40    1
     4     1    41    1
     5     2     3    1
     6     3     4   ar
     7     3    37   ar
     8     4     5   ar
     9     5     6    1
    10     5    13   ar
    11     6     7   ar
    12     6    12   ar
    13     7     8   ar
    14     7    42    1
    15     8     9   ar
    16     8    43    1
    17     9    10    1
    18     9    11   ar
    19    11    12   ar
    20    11    44    1
    21    12    45    1
    22    13    14    1
    23    13    37   ar
    24    14    15   ar
    25    14    36   ar
    26    15    16   ar
    27    15    46    1
    28    16    17   ar
    29    16    47    1
    30    17    18   ar
    31    18    19    1
    32    18    36   ar
    33    19    20    1
    34    19    48    1
    35    20    21   ar
    36    20    35   ar
    37    21    22   ar
    38    21    49    1
    39    22    23   ar
    40    22    50    1
    41    23    24    1
    42    23    34   ar
    43    24    25   am
    44    24    51    1
    45    25    26    2
    46    25    27    1
    47    27    28   ar
    48    27    33   ar
    49    28    29   ar
    50    28    52    1
    51    29    30   ar
    52    29    53    1
    53    30    31   ar
    54    30    54    1
    55    31    32    1
    56    31    33   ar
    57    32    55    1
    58    32    56    1
    59    33    57    1
    60    34    35   ar
    61    34    58    1
    62    35    59    1
    63    36    60    1
    64    37    38    1
    65    38    61    1
    66    38    62    1
    67    38    63    1
